Partition C34145AC-92A5-464B-A2C4-79B335C35F98
AeroDynamicPhysicsData 2EC86410-6828-44F2-8DA2-652AA3F41C40
    $::DataContainer
    BodyDrag::Vec3
        x 0.035000000149
        y 0.0799999982119
        z 0.00419999985024
    BodyDragOffsetYZ::Vec3
        x 0.0
        y 0.0
        z -0.20000000298
    BodyDragOffsetXZ::Vec3
        x 0.0
        y 0.0
        z 0.0
    BodyDragOffsetXY::Vec3
        x 0.0
        y 0.0
        z 0.0
AlternateCameraViewData 37AF100F-7E5F-4F11-AB27-8134D7D0ADDF
    $::DataContainer
    FieldOfView 55.0
    AllowFieldOfViewScaling False
    FovTransitionTime 0.10000000149
    WorldSpaceLockEfficiency 0.0
    Mesh vehicles/common/cockpits/helmethud_Mesh/7CBF4F19-4C3A-47DE-B4C6-1006186C86F9
    MaskMeshBlueprint *nullGuid*
    LockMeshToRenderView True
    MeshOffset::Vec3
        x 0.0
        y 0.0
        z 0.25
    Hud::HudData
        CrosshairScaleMin 0.0
        CrosshairScaleMax 5.0
        CrosshairOpacityMin 1.0
        CrosshairOpacityMax 0.10000000149
        CrosshairOpacityModifier 1.0
        CrosshairTypeId *nullString*
        WeaponClass *nullString*
        ShowMinimap True
        HideAmmo False
        LowAmmoWarning 0.300000011921
        ReloadPrompt 0.300000011921
        InfiniteAmmo False
        HideCrosshairWhenAimOnFriend True
        UseRenderTarget False
        RenderTargetIndex 0
        HudPropertyList 5828A8C9-826F-4064-B083-CFF659275A98
        UseRangeMeter True
        UseAimWarning True
        UsePredictedSight True
        UseWeaponOrientations True
        UseVelocityVectorMarker False
        UseLockingController True
        UseThrust True
        UseGForce True
        UseSkidSlip True
        UseClimbRate True
        SeaLevelAltFreq 15.0
        CameraShakeModifier 1.0
    FadeToBlack False
    FadeInDuration 0.0
    FadeOutDuration 0.0
    BlackDuration 0.0
    InputSuppression::InputSuppressionData
        SuppressVehicleInput::array
            member(0)::ActionSuppressor
                ActionToSuppress EIAPitch
                SuppressingValue 0.0
            member(1)::ActionSuppressor
                ActionToSuppress EIARoll
                SuppressingValue 0.0
    ToggleViewChange False
    UseProfileOptionForToggleViewChange False
    FLIREnabled False
    ScreenExposureAreaScale 1.0
AlternateCameraViewData EC06FEA0-E72A-4A6B-B797-3440CBFD55C1
    $::DataContainer
    FieldOfView 55.0
    AllowFieldOfViewScaling False
    FovTransitionTime 0.10000000149
    WorldSpaceLockEfficiency 0.0
    Mesh vehicles/common/cockpits/helmethud_Mesh/7CBF4F19-4C3A-47DE-B4C6-1006186C86F9
    MaskMeshBlueprint *nullGuid*
    LockMeshToRenderView True
    MeshOffset::Vec3
        x 0.0
        y 0.0
        z 0.25
    Hud::HudData
        CrosshairScaleMin 0.0
        CrosshairScaleMax 5.0
        CrosshairOpacityMin 1.0
        CrosshairOpacityMax 0.10000000149
        CrosshairOpacityModifier 1.0
        CrosshairTypeId *nullString*
        WeaponClass *nullString*
        ShowMinimap True
        HideAmmo False
        LowAmmoWarning 0.300000011921
        ReloadPrompt 0.300000011921
        InfiniteAmmo False
        HideCrosshairWhenAimOnFriend True
        UseRenderTarget False
        RenderTargetIndex 0
        HudPropertyList *nullGuid*
        UseRangeMeter True
        UseAimWarning True
        UsePredictedSight True
        UseWeaponOrientations True
        UseVelocityVectorMarker False
        UseLockingController True
        UseThrust True
        UseGForce True
        UseSkidSlip True
        UseClimbRate True
        SeaLevelAltFreq 15.0
        CameraShakeModifier 1.0
    FadeToBlack False
    FadeInDuration 0.0
    FadeOutDuration 0.0
    BlackDuration 0.0
    InputSuppression::InputSuppressionData
        SuppressVehicleInput::array
            member(0)::ActionSuppressor
                ActionToSuppress EIAPitch
                SuppressingValue 0.0
            member(1)::ActionSuppressor
                ActionToSuppress EIARoll
                SuppressingValue 0.0
    ToggleViewChange False
    UseProfileOptionForToggleViewChange False
    FLIREnabled False
    ScreenExposureAreaScale 1.0
AntEnumeration A15CED39-25B0-4CE2-8190-FE6C8E3F27D1
    $::DataContainer
    AntAsset::AntRef
        AssetId 357078069
    Value 42
AntEnumeration 9F907CE5-0B87-4AD9-8113-CA94E1F5674E
    $::DataContainer
    AntAsset::AntRef
        AssetId 357078069
    Value 42
BangerSpawnImpulseParams 84D28DC0-DDC6-4B5A-90A1-D6F6B8CA0062
    $::DataContainer
    MinHorizontalAngle -90.0
    MaxHorizontalAngle 90.0
    MinVerticalAngle 45.0
    MaxVerticalAngle 85.0
    MinStrength 5000.0
    MaxStrength 15000.0
    WaterStrengthModifier 0.00700000021607
    LinearDamping 0.0
    AngularDamping 0.0500000007451
CameraComponentData 7707F356-0C6B-41F6-8005-66A8EDB952F5
    $::ComponentData
        $::GameObjectData
            $::GameDataContainer
                $::DataContainer
            IsEventConnectionTarget 3
            IsPropertyConnectionTarget 3
            IndexInBlueprint 65535
        Transform::LinearTransform
            right::Vec3
                x 1.0
                y 0.0
                z 0.0
            up::Vec3
                x 0.0
                y 1.0
                z 0.0
            forward::Vec3
                x 0.0
                y 0.0
                z 1.0
            trans::Vec3
                x 0.206885814667
                y 0.247150242329
                z -0.312392950058
        Components *nullArray*
        Excluded False
    Camera 77B4DEB6-CD2E-4A00-A9E9-48E749C9B950
    FieldOfView 45.0
    ForceFieldOfView -1.0
    EnableCameraMesh True
    AlternateView 37AF100F-7E5F-4F11-AB27-8134D7D0ADDF
    RegularView::RegularCameraViewData
        FLIREnabled False
        InputSuppression::InputSuppressionData
            SuppressVehicleInput *nullArray*
        FieldOfView 55.0
        AllowFieldOfViewScaling False
        Mesh vehicles/common/cockpits/helmethud_Mesh/7CBF4F19-4C3A-47DE-B4C6-1006186C86F9
        MaskMeshBlueprint *nullGuid*
        LockMeshToRenderView True
        MeshOffset::Vec3
            x 0.0
            y 0.0
            z 0.25
        ScreenExposureAreaScale 1.0
    AlternateViewEnabled True
    FreezeHeight 0.0
    IsFirstPerson True
    SoldierAnimatedCamera::SoldierAnimatedCameraData
        EnableFeature False
        CameraTransitionTime 0.5
    ReceiveImpulsesAsThirdPerson False
    UseCameraTransition False
    CameraTransitionPos::Vec3
        x 0.0
        y 0.0
        z 0.0
    CameraTransitionTime 2.0
    MeshParentComponentNumber 0
    StanceData::StanceCameraData
        ValidStances *nullArray*
        DefaultCameraForStances *nullArray*
    CameraSoundData *nullGuid*
    IgnoreOwnerOrientation False
CameraComponentData 605E2966-53D7-4972-8D84-4FDB21C32C03
    $::ComponentData
        $::GameObjectData
            $::GameDataContainer
                $::DataContainer
            IsEventConnectionTarget 3
            IsPropertyConnectionTarget 3
            IndexInBlueprint 65535
        Transform::LinearTransform
            right::Vec3
                x 1.0
                y 0.0
                z 0.0
            up::Vec3
                x 0.0
                y 1.0
                z 0.0
            forward::Vec3
                x 0.0
                y 0.0
                z 1.0
            trans::Vec3
                x 0.206885814667
                y 0.247150242329
                z -0.312392950058
        Components *nullArray*
        Excluded False
    Camera 6229C0D8-C609-40BD-B8A4-18524C7D76B9
    FieldOfView 45.0
    ForceFieldOfView -1.0
    EnableCameraMesh True
    AlternateView EC06FEA0-E72A-4A6B-B797-3440CBFD55C1
    RegularView::RegularCameraViewData
        FLIREnabled False
        InputSuppression::InputSuppressionData
            SuppressVehicleInput *nullArray*
        FieldOfView 55.0
        AllowFieldOfViewScaling False
        Mesh vehicles/common/cockpits/helmethud_Mesh/7CBF4F19-4C3A-47DE-B4C6-1006186C86F9
        MaskMeshBlueprint *nullGuid*
        LockMeshToRenderView True
        MeshOffset::Vec3
            x 0.0
            y 0.0
            z 0.25
        ScreenExposureAreaScale 1.0
    AlternateViewEnabled True
    FreezeHeight 0.0
    IsFirstPerson True
    SoldierAnimatedCamera::SoldierAnimatedCameraData
        EnableFeature False
        CameraTransitionTime 0.5
    ReceiveImpulsesAsThirdPerson False
    UseCameraTransition False
    CameraTransitionPos::Vec3
        x 0.0
        y 0.0
        z 0.0
    CameraTransitionTime 2.0
    MeshParentComponentNumber 0
    StanceData::StanceCameraData
        ValidStances *nullArray*
        DefaultCameraForStances *nullArray*
    CameraSoundData *nullGuid*
    IgnoreOwnerOrientation False
ChassisComponentData 6FB93B50-510B-46E8-AAC6-F0F68D79D827
    $::PartComponentData
        $::ComponentData
            $::GameObjectData
                $::GameDataContainer
                    $::DataContainer
                IsEventConnectionTarget 3
                IsPropertyConnectionTarget 3
                IndexInBlueprint 1
            Transform::LinearTransform
                right::Vec3
                    x 1.0
                    y 0.0
                    z 0.0
                up::Vec3
                    x 0.0
                    y 1.0
                    z 0.0
                forward::Vec3
                    x 0.0
                    y 0.0
                    z 1.0
                trans::Vec3
                    x 0.0
                    y 0.0
                    z 0.0
            Components::array
                member(0) 7485C09E-3994-4AB1-AB0C-5A7712C51B09
                member(1) 19273A5D-17BB-4AFE-9046-BD126AC948BC
                member(2) 64062B23-D0DD-4FBC-96E0-939A86767728
                member(3) 074BC8B2-0CD8-4BBE-9672-5012A7B896B4
                member(4) 2DDB4FF1-9DF3-46D1-B590-A520E3A0ED8A
                member(5) FD42AAAE-AF78-4B21-839A-449F0E23D6D7
                member(6) 3C167641-DE47-4902-897C-278DD75E3443
                member(7) 2DFCB4BC-0A95-4ECF-A390-412ECAE17E7A
                member(8) 570746B3-A76C-498F-9985-DB0485959BA7
                member(9) 50BE40FB-0631-48C8-96C3-0964C12AC5DD
                member(10) FCB688F9-E91F-4E01-91F5-078E8CDEEED2
                member(11) 9F04B1C5-AA4B-430B-A314-848F8DF271EC
                member(12) 5060C527-164C-4345-972B-DD498F2D376B
                member(13) 392856B1-1818-4002-AF1C-473CC2D7F63F
                member(14) 4F404919-40DB-412D-1211-B752EAB2905E
                member(15) 2430C662-3709-3073-A6D1-75CD9CF82C23
                member(16) 1B8916CF-BE86-383E-1D4A-9BFD77F68208
                member(17) 24E77E22-BB96-E990-0786-0C41E1FEBBDE
            Excluded False
        HealthStates::array
            member(0) 4DCAF5CB-6321-4040-ABE7-57129BB3CF7B
        PartLinks *nullArray*
        IsSupported False
        IsFragile False
        IsNetworkable True
        IsWindow False
        AnimatePhysics False
    VehicleConfig 7A1A9752-2251-41BB-97FE-C9073ECDE554
    GearboxConfig 5233179C-5ACB-44A9-A1D9-D9810605FFC8
    AlwaysFullThrottle False
    WaterEffects *nullArray*
    WaterStreakEffects *nullArray*
    TriggerGroundEffectImpulse 0.0
    LandingGearLogic *nullGuid*
    ForceLandingGearsRetract False
    AllowNegativeThrottle True
Curve2D 4B250F3C-7FD0-48D2-B099-6F95CD9ADC41
    $::DataContainer
    Curve::array
        member(0)::Vec2
            x -35.0
            y 1.0
        member(1)::Vec2
            x 0.0
            y 0.0
        member(2)::Vec2
            x 35.0
            y 1.0
Curve2D B8E83271-5C60-4347-B47B-2C39C3FD75F6
    $::DataContainer
    Curve *nullArray*
Curve2D 8B4FD305-2AF4-48C1-BE1C-7880075F986C
    $::DataContainer
    Curve *nullArray*
Curve2D 056B9CCD-6805-41DE-BD88-5BB2EC912FCE
    $::DataContainer
    Curve::array
        member(0)::Vec2
            x -35.0
            y 1.0
        member(1)::Vec2
            x 0.0
            y 0.0
        member(2)::Vec2
            x 35.0
            y 1.0
Curve2D C5ADEF03-62E9-45B3-A4AE-1C0607AB01F3
    $::DataContainer
    Curve::array
        member(0)::Vec2
            x -25.0
            y -1.0
        member(1)::Vec2
            x -20.0
            y -3.0
        member(2)::Vec2
            x -10.0
            y -2.0
        member(3)::Vec2
            x -0.75
            y 0.0
        member(4)::Vec2
            x 0.75
            y 0.0
        member(5)::Vec2
            x 10.0
            y 2.0
        member(6)::Vec2
            x 20.0
            y 3.0
        member(7)::Vec2
            x 25.0
            y 1.0
Curve2D 7A82B9D1-EEA6-4D60-BD2F-86CEA0D8444C
    $::DataContainer
    Curve::array
        member(0)::Vec2
            x -12.5
            y 2.25
        member(1)::Vec2
            x -7.5
            y 1.25
        member(2)::Vec2
            x -5.0
            y 0.10000000149
        member(3)::Vec2
            x -2.0
            y 0.0500000007451
        member(4)::Vec2
            x 0.0
            y 0.0299999993294
        member(5)::Vec2
            x 2.0
            y 0.0500000007451
        member(6)::Vec2
            x 5.0
            y 0.10000000149
        member(7)::Vec2
            x 7.5
            y 1.25
        member(8)::Vec2
            x 12.5
            y 2.25
EngineComponentData 074BC8B2-0CD8-4BBE-9672-5012A7B896B4
    $::ComponentData
        $::GameObjectData
            $::GameDataContainer
                $::DataContainer
            IsEventConnectionTarget 3
            IsPropertyConnectionTarget 3
            IndexInBlueprint 65535
        Transform::LinearTransform
            right::Vec3
                x 1.0
                y 0.0
                z 0.0
            up::Vec3
                x 0.0
                y 1.0
                z 0.0
            forward::Vec3
                x 0.0
                y 0.0
                z 1.0
            trans::Vec3
                x 0.0
                y 0.0
                z 0.0
        Components::array
            member(0) FD5EC18B-55E9-4E89-8B83-71AC5F1687CC
        Excluded False
    Config 502D2E4B-3C28-45CF-8BB9-DFE34D9FC952
    SoundEffect *nullGuid*
    SurfaceSoundEffect *nullGuid*
    UseFirstPersonSounds False
    OutputIsEngineInWater False
EngineComponentData 2DDB4FF1-9DF3-46D1-B590-A520E3A0ED8A
    $::ComponentData
        $::GameObjectData
            $::GameDataContainer
                $::DataContainer
            IsEventConnectionTarget 3
            IsPropertyConnectionTarget 3
            IndexInBlueprint 65535
        Transform::LinearTransform
            right::Vec3
                x 1.0
                y 0.0
                z 0.0
            up::Vec3
                x 0.0
                y 1.0
                z 0.0
            forward::Vec3
                x 0.0
                y 0.0
                z 1.0
            trans::Vec3
                x 0.0
                y 0.0
                z 0.0
        Components::array
            member(0) 4230EE07-DCE0-41AB-AC0A-61E8813F60BC
        Excluded False
    Config 6447D758-88EE-4EE6-AF18-8FCCC823537A
    SoundEffect *nullGuid*
    SurfaceSoundEffect *nullGuid*
    UseFirstPersonSounds False
    OutputIsEngineInWater False
EntityVoiceOverInfo 11AE4C0F-F735-411F-8538-4E17FD02DB67
    $::DataContainer
    VoiceOverType Sound/VO/VO_System/E23D6FD9-AED0-437E-98AB-435761060519
    Labels::array
        member(0) Sound/VO/VO_System/D5C4F416-4260-4C54-8F47-AA07606FBB29
GearboxConfigData 5233179C-5ACB-44A9-A1D9-D9810605FFC8
    $::DataContainer
    ForwardGearRatios::array
        member(0) 0.0
    ForwardGearSpeeds::array
        member(0) 0.0
    ReverseGearRatios::array
        member(0) 0.0
    ReverseGearSpeeds::array
        member(0) 0.0
    GearboxType 0
    GearboxMode 0
    GearChangeTime 0.0625
    GearDownSpeedFactor 0.800000011921
    OppositeDirGearChangeMaxSpeed 50.0
    OppositeDirGearChangeTime 0.125
    ClutchSpeedFactor 10.0
    TransmissionEfficiency 1.0
    UseAutoClutch True
    UseClassicGearBoxAutoClutch False
    UseNeutralGear True
    LimitBackwardThrottle False
    BackwardThrottleLimit 50.0
HavokAsset 03D71867-2CB4-E0C7-FEB8-3E1D52151A09
    $::Asset
        $::DataContainer
        Name Levels/SP_Villa/Prefabs/KA-60_Kasatka_Villa_Physics_0_Win32
    Scale 1.0
    ExternalAssets *nullArray*
HealthStateData 4DCAF5CB-6321-4040-ABE7-57129BB3CF7B
    $::DataContainer
    Objects *nullArray*
    LoosePartPhysics *nullArray*
    SpawnedBangerBlueprint *nullGuid*
    CopyDamageToBanger True
    SpawnedBangerImpulseParams *nullGuid*
    PhysicsEnabled True
    Health 100000.0
    PartIndex 0
    CanSupportOtherParts True
HealthStateData 04E1A413-35AE-43E0-91C0-8AB19D320994
    $::DataContainer
    Objects *nullArray*
    LoosePartPhysics *nullArray*
    SpawnedBangerBlueprint *nullGuid*
    CopyDamageToBanger True
    SpawnedBangerImpulseParams *nullGuid*
    PhysicsEnabled True
    Health 100.0
    PartIndex 8
    CanSupportOtherParts True
HealthStateData 112C42DC-35AB-4FC5-BB83-BB0E5E2BB909
    $::DataContainer
    Objects *nullArray*
    LoosePartPhysics *nullArray*
    SpawnedBangerBlueprint *nullGuid*
    CopyDamageToBanger True
    SpawnedBangerImpulseParams *nullGuid*
    PhysicsEnabled True
    Health 100.0
    PartIndex 9
    CanSupportOtherParts True
HealthStateData DB16F38E-9CB9-462D-9CE2-09DC68451E71
    $::DataContainer
    Objects *nullArray*
    LoosePartPhysics *nullArray*
    SpawnedBangerBlueprint *nullGuid*
    CopyDamageToBanger True
    SpawnedBangerImpulseParams *nullGuid*
    PhysicsEnabled True
    Health 100.0
    PartIndex 10
    CanSupportOtherParts True
HealthStateData AF7CA5FF-0AF0-4D3C-A6F7-5B05A3E3C530
    $::DataContainer
    Objects *nullArray*
    LoosePartPhysics *nullArray*
    SpawnedBangerBlueprint *nullGuid*
    CopyDamageToBanger True
    SpawnedBangerImpulseParams *nullGuid*
    PhysicsEnabled True
    Health 100.0
    PartIndex 11
    CanSupportOtherParts True
HealthStateData 608B648C-05FB-4151-9AEC-F70CFACFC0FA
    $::DataContainer
    Objects *nullArray*
    LoosePartPhysics *nullArray*
    SpawnedBangerBlueprint *nullGuid*
    CopyDamageToBanger True
    SpawnedBangerImpulseParams *nullGuid*
    PhysicsEnabled True
    Health 100.0
    PartIndex 12
    CanSupportOtherParts True
HealthStateData E15C572D-064F-4EEB-B0D1-3B694973D61C
    $::DataContainer
    Objects *nullArray*
    LoosePartPhysics *nullArray*
    SpawnedBangerBlueprint *nullGuid*
    CopyDamageToBanger True
    SpawnedBangerImpulseParams *nullGuid*
    PhysicsEnabled True
    Health 100.0
    PartIndex 13
    CanSupportOtherParts True
HealthStateData 7379D1EB-7DAB-498D-B7D5-7A7042B24B5E
    $::DataContainer
    Objects *nullArray*
    LoosePartPhysics *nullArray*
    SpawnedBangerBlueprint *nullGuid*
    CopyDamageToBanger True
    SpawnedBangerImpulseParams *nullGuid*
    PhysicsEnabled True
    Health 100.0
    PartIndex 20
    CanSupportOtherParts True
HealthStateData 5770F6C9-8DFC-426B-B5B3-6A274D32D041
    $::DataContainer
    Objects *nullArray*
    LoosePartPhysics *nullArray*
    SpawnedBangerBlueprint *nullGuid*
    CopyDamageToBanger True
    SpawnedBangerImpulseParams *nullGuid*
    PhysicsEnabled True
    Health 100.0
    PartIndex 21
    CanSupportOtherParts True
HealthStateData ED1584BF-5466-44D7-B24B-E15FF6385876
    $::DataContainer
    Objects *nullArray*
    LoosePartPhysics *nullArray*
    SpawnedBangerBlueprint *nullGuid*
    CopyDamageToBanger True
    SpawnedBangerImpulseParams *nullGuid*
    PhysicsEnabled True
    Health 100.0
    PartIndex 22
    CanSupportOtherParts True
HealthStateData 6DFAE574-821C-46AB-8288-8ACB1B7B0E29
    $::DataContainer
    Objects *nullArray*
    LoosePartPhysics *nullArray*
    SpawnedBangerBlueprint *nullGuid*
    CopyDamageToBanger True
    SpawnedBangerImpulseParams *nullGuid*
    PhysicsEnabled True
    Health 100.0
    PartIndex 23
    CanSupportOtherParts True
HealthStateData B2CCBD6B-FDF3-4170-BAE9-B7A629DF6E4E
    $::DataContainer
    Objects *nullArray*
    LoosePartPhysics *nullArray*
    SpawnedBangerBlueprint *nullGuid*
    CopyDamageToBanger True
    SpawnedBangerImpulseParams *nullGuid*
    PhysicsEnabled True
    Health 500.0
    PartIndex 7
    CanSupportOtherParts True
HealthStateData 7B7DF147-B78D-4D53-895D-6D6D5CD615F0
    $::DataContainer
    Objects *nullArray*
    LoosePartPhysics *nullArray*
    SpawnedBangerBlueprint Vehicles/KA-60_Kasatka/KA-60_Kasatka_WreckTail/22447822-3DD0-C1E9-DC25-9800E02FB8FC
    CopyDamageToBanger True
    SpawnedBangerImpulseParams 84D28DC0-DDC6-4B5A-90A1-D6F6B8CA0062
    PhysicsEnabled True
    Health 0.0
    PartIndex 4294967295
    CanSupportOtherParts False
HealthStateData 9848F688-BC75-4841-B9F9-F2C1CC45BAB2
    $::DataContainer
    Objects *nullArray*
    LoosePartPhysics *nullArray*
    SpawnedBangerBlueprint *nullGuid*
    CopyDamageToBanger True
    SpawnedBangerImpulseParams *nullGuid*
    PhysicsEnabled True
    Health 100.0
    PartIndex 24
    CanSupportOtherParts True
HealthStateData 324A4013-4DAA-4807-9070-4C562A176108
    $::DataContainer
    Objects *nullArray*
    LoosePartPhysics *nullArray*
    SpawnedBangerBlueprint *nullGuid*
    CopyDamageToBanger True
    SpawnedBangerImpulseParams *nullGuid*
    PhysicsEnabled True
    Health 100.0
    PartIndex 25
    CanSupportOtherParts True
HealthStateData 2C72A9F2-77B2-4544-8380-EAB04F3B4630
    $::DataContainer
    Objects *nullArray*
    LoosePartPhysics *nullArray*
    SpawnedBangerBlueprint *nullGuid*
    CopyDamageToBanger True
    SpawnedBangerImpulseParams *nullGuid*
    PhysicsEnabled True
    Health 100.0
    PartIndex 26
    CanSupportOtherParts True
HealthStateData 4EA54E83-B3C0-4B7A-BD3B-7FC09DA4C403
    $::DataContainer
    Objects *nullArray*
    LoosePartPhysics *nullArray*
    SpawnedBangerBlueprint *nullGuid*
    CopyDamageToBanger True
    SpawnedBangerImpulseParams *nullGuid*
    PhysicsEnabled True
    Health 100.0
    PartIndex 27
    CanSupportOtherParts True
HealthStateData 2CAC0141-8BDB-CADE-493B-274460EB4C44
    $::DataContainer
    Objects *nullArray*
    LoosePartPhysics *nullArray*
    SpawnedBangerBlueprint *nullGuid*
    CopyDamageToBanger True
    SpawnedBangerImpulseParams *nullGuid*
    PhysicsEnabled True
    Health 100.0
    PartIndex 1
    CanSupportOtherParts True
HealthStateData 63847F5D-BD4E-2823-346B-B834EE5A2597
    $::DataContainer
    Objects *nullArray*
    LoosePartPhysics *nullArray*
    SpawnedBangerBlueprint *nullGuid*
    CopyDamageToBanger True
    SpawnedBangerImpulseParams *nullGuid*
    PhysicsEnabled True
    Health 100.0
    PartIndex 2
    CanSupportOtherParts True
HealthStateData 28F912AC-4C46-70F5-16E6-71C40AD088E2
    $::DataContainer
    Objects *nullArray*
    LoosePartPhysics *nullArray*
    SpawnedBangerBlueprint *nullGuid*
    CopyDamageToBanger True
    SpawnedBangerImpulseParams *nullGuid*
    PhysicsEnabled True
    Health 100.0
    PartIndex 14
    CanSupportOtherParts True
HealthStateData 452336B1-2829-3A27-B057-FF4DEFEBE58D
    $::DataContainer
    Objects *nullArray*
    LoosePartPhysics *nullArray*
    SpawnedBangerBlueprint *nullGuid*
    CopyDamageToBanger True
    SpawnedBangerImpulseParams *nullGuid*
    PhysicsEnabled True
    Health 100.0
    PartIndex 15
    CanSupportOtherParts True
HealthStateData 855F6BC0-1D3C-6A04-9668-B0AFC63A8119
    $::DataContainer
    Objects *nullArray*
    LoosePartPhysics *nullArray*
    SpawnedBangerBlueprint *nullGuid*
    CopyDamageToBanger True
    SpawnedBangerImpulseParams *nullGuid*
    PhysicsEnabled True
    Health 100.0
    PartIndex 16
    CanSupportOtherParts True
HealthStateData 8259F17B-B6AB-823B-3EF3-B4CA7EA852B5
    $::DataContainer
    Objects *nullArray*
    LoosePartPhysics *nullArray*
    SpawnedBangerBlueprint *nullGuid*
    CopyDamageToBanger True
    SpawnedBangerImpulseParams *nullGuid*
    PhysicsEnabled True
    Health 100.0
    PartIndex 17
    CanSupportOtherParts True
HealthStateData A5BC1296-DF38-D37B-4B77-0ABB9A5C6D82
    $::DataContainer
    Objects *nullArray*
    LoosePartPhysics *nullArray*
    SpawnedBangerBlueprint *nullGuid*
    CopyDamageToBanger True
    SpawnedBangerImpulseParams *nullGuid*
    PhysicsEnabled True
    Health 100.0
    PartIndex 18
    CanSupportOtherParts True
HealthStateData 795EB686-1069-CFE5-9DBF-0F6189E7519E
    $::DataContainer
    Objects *nullArray*
    LoosePartPhysics *nullArray*
    SpawnedBangerBlueprint *nullGuid*
    CopyDamageToBanger True
    SpawnedBangerImpulseParams *nullGuid*
    PhysicsEnabled True
    Health 100.0
    PartIndex 19
    CanSupportOtherParts True
MeshComponentData 7485C09E-3994-4AB1-AB0C-5A7712C51B09
    $::ComponentData
        $::GameObjectData
            $::GameDataContainer
                $::DataContainer
            IsEventConnectionTarget 3
            IsPropertyConnectionTarget 3
            IndexInBlueprint 65535
        Transform::LinearTransform
            right::Vec3
                x 1.0
                y 0.0
                z 0.0
            up::Vec3
                x 0.0
                y 1.0
                z 0.0
            forward::Vec3
                x 0.0
                y 0.0
                z 1.0
            trans::Vec3
                x 0.0277693271637
                y 0.0
                z 0.014840900898
        Components *nullArray*
        Excluded False
    BoneFakePhysics *nullArray*
    Mesh levels/sp_villa/props/ka-60_kasatkainterior_villa_Mesh/A7157376-FBC8-413B-BFEA-85F47FBD99B8
    Skeleton *nullGuid*
MotionDampingData 4F6145CD-B2DD-4CCE-B81B-BF95EAE0E95D
    $::DataContainer
    LinearModifier::Vec3
        x 1.0
        y 1.0
        z 1.0
    Pitch 0.20000000298
    Yaw 0.0799999982119
    Roll 0.20000000298
    Linear 0.0
PartComponentData 50BE40FB-0631-48C8-96C3-0964C12AC5DD
    $::ComponentData
        $::GameObjectData
            $::GameDataContainer
                $::DataContainer
            IsEventConnectionTarget 3
            IsPropertyConnectionTarget 3
            IndexInBlueprint 65535
        Transform::LinearTransform
            right::Vec3
                x 1.0
                y 0.0
                z 0.0
            up::Vec3
                x 0.0
                y 1.0
                z 0.0
            forward::Vec3
                x 0.0
                y 0.0
                z 1.0
            trans::Vec3
                x 0.0
                y 0.0
                z 0.0
        Components::array
            member(0) 416EAB40-7704-490F-A8AA-07B2B3DF172F
            member(1) 33BD4FF8-C5ED-402C-9744-2C5F9ADA293A
            member(2) FA16F7A1-F521-4DCA-BE67-4BA34053BCCA
            member(3) 19F46C9B-E453-4278-A99A-4633A2CBCD3F
        Excluded False
    HealthStates *nullArray*
    PartLinks *nullArray*
    IsSupported False
    IsFragile False
    IsNetworkable True
    IsWindow False
    AnimatePhysics False
PartComponentData 392856B1-1818-4002-AF1C-473CC2D7F63F
    $::ComponentData
        $::GameObjectData
            $::GameDataContainer
                $::DataContainer
            IsEventConnectionTarget 3
            IsPropertyConnectionTarget 3
            IndexInBlueprint 65535
        Transform::LinearTransform
            right::Vec3
                x 1.0
                y 0.0
                z 0.0
            up::Vec3
                x 0.0
                y 1.0
                z 0.0
            forward::Vec3
                x 0.0
                y 0.0
                z 1.0
            trans::Vec3
                x -3.81469718036e-08
                y -1.04522562027
                z -5.1238079071
        Components::array
            member(0) 05E9788F-F61D-4276-9810-F712B2A4099D
        Excluded False
    HealthStates::array
        member(0) B2CCBD6B-FDF3-4170-BAE9-B7A629DF6E4E
        member(1) 7B7DF147-B78D-4D53-895D-6D6D5CD615F0
    PartLinks *nullArray*
    IsSupported False
    IsFragile False
    IsNetworkable True
    IsWindow False
    AnimatePhysics False
PartComponentData 05E9788F-F61D-4276-9810-F712B2A4099D
    $::ComponentData
        $::GameObjectData
            $::GameDataContainer
                $::DataContainer
            IsEventConnectionTarget 3
            IsPropertyConnectionTarget 3
            IndexInBlueprint 65535
        Transform::LinearTransform
            right::Vec3
                x 1.0
                y 0.0
                z 0.0
            up::Vec3
                x 0.0
                y 0.955019950867
                z -0.296541571617
            forward::Vec3
                x 0.0
                y 0.296541571617
                z 0.955019950867
            trans::Vec3
                x 3.81469718036e-08
                y 2.4264793396
                z -3.07148456573
        Components *nullArray*
        Excluded False
    HealthStates::array
        member(0) 7379D1EB-7DAB-498D-B7D5-7A7042B24B5E
    PartLinks *nullArray*
    IsSupported False
    IsFragile False
    IsNetworkable True
    IsWindow False
    AnimatePhysics False