Partition 1DF6F9A2-8BA1-11E0-9EF7-9C4CA6DBFDF3
AIEntryData FEB9CDE1-B605-C40B-7600-0A79989FC18C
    $::GameAIEntryData
        $::Asset
            $::DataContainer
            Name *nullString*
    EquipmentType *nullGuid*
    Armament *nullGuid*
    Mobility *nullGuid*
    StrengthType Infantry
    ReuseTime 0.0
    Forbidden True
    HasExposedSoldier False
    InterludeOnly False
    InvalidForAI False
AeroDynamicPhysicsData DC315C21-48A5-4972-AF6C-3F09559C1C79
    $::DataContainer
    BodyDrag::Vec3
        x 0.5
        y 0.5
        z 0.0
    BodyDragOffsetYZ::Vec3
        x 0.0
        y 0.0
        z 0.0
    BodyDragOffsetXZ::Vec3
        x 0.0
        y 0.0
        z 0.0
    BodyDragOffsetXY::Vec3
        x 0.0
        y 0.0
        z 0.0
BoolToEventEntityData DAE9C29E-051D-45D7-B67F-ABA0A96F737A
    $::EntityData
        $::GameObjectData
            $::GameDataContainer
                $::DataContainer
            IsEventConnectionTarget 3
            IsPropertyConnectionTarget 2
            IndexInBlueprint 5
    Realm Realm_Client
    Value False
    InitalEvent False
BoolToEventEntityData 707C7F51-3FFD-4A61-A50F-CA8D007E97F9
    $::EntityData
        $::GameObjectData
            $::GameDataContainer
                $::DataContainer
            IsEventConnectionTarget 3
            IsPropertyConnectionTarget 0
            IndexInBlueprint 7
    Realm Realm_Client
    Value False
    InitalEvent False
CameraComponentData E68C2506-F680-4198-8750-CC9A6106BEBA
    $::ComponentData
        $::GameObjectData
            $::GameDataContainer
                $::DataContainer
            IsEventConnectionTarget 3
            IsPropertyConnectionTarget 3
            IndexInBlueprint 65535
        Transform::LinearTransform
            right::Vec3
                x 1.0
                y 0.0
                z 0.0
            up::Vec3
                x 0.0
                y 1.0
                z 0.0
            forward::Vec3
                x 0.0
                y 0.0
                z 1.0
            trans::Vec3
                x 0.0
                y 0.0
                z 0.890224993229
        Components *nullArray*
        Excluded False
    Camera FF11B44A-28C0-4166-AD19-2573ED8D0C0D
    FieldOfView 45.0
    ForceFieldOfView -1.0
    EnableCameraMesh True
    AlternateView *nullGuid*
    RegularView::RegularCameraViewData
        FLIREnabled False
        InputSuppression::InputSuppressionData
            SuppressVehicleInput *nullArray*
        FieldOfView 36.0
        AllowFieldOfViewScaling False
        Mesh vehicles/common/cockpits/hudholder_Mesh/99330D0D-ECC1-47A3-911D-89DCE40EAC0C
        MaskMeshBlueprint *nullGuid*
        LockMeshToRenderView False
        MeshOffset::Vec3
            x 0.0
            y 0.0
            z 0.589999973774
        ScreenExposureAreaScale 1.0
    AlternateViewEnabled True
    FreezeHeight 0.0
    IsFirstPerson True
    SoldierAnimatedCamera::SoldierAnimatedCameraData
        EnableFeature False
        CameraTransitionTime 0.5
    ReceiveImpulsesAsThirdPerson False
    UseCameraTransition False
    CameraTransitionPos::Vec3
        x 0.0
        y 0.0
        z 0.0
    CameraTransitionTime 2.0
    MeshParentComponentNumber 0
    StanceData::StanceCameraData
        ValidStances *nullArray*
        DefaultCameraForStances *nullArray*
    CameraSoundData *nullGuid*
    IgnoreOwnerOrientation False
ChassisComponentData F2BF8B55-6288-F12E-40D1-B566E782FCBD
    $::PartComponentData
        $::ComponentData
            $::GameObjectData
                $::GameDataContainer
                    $::DataContainer
                IsEventConnectionTarget 3
                IsPropertyConnectionTarget 3
                IndexInBlueprint 1
            Transform::LinearTransform
                right::Vec3
                    x 1.0
                    y 0.0
                    z 0.0
                up::Vec3
                    x 0.0
                    y 1.0
                    z 0.0
                forward::Vec3
                    x 0.0
                    y 0.0
                    z 1.0
                trans::Vec3
                    x -3.37326859778e-08
                    y 0.0
                    z -0.419793337584
            Components::array
                member(0) FA54904C-FE9C-4F26-AC7A-71CD94A43442
                member(1) 37024431-B930-48AB-9BD9-465AEFF3537D
                member(2) 7B0181B4-D65F-43F8-AF50-CAEF929198C0
                member(3) E68C2506-F680-4198-8750-CC9A6106BEBA
                member(4) 64DDEF59-A6D0-4F7E-8990-270C6BE480A8
            Excluded False
        HealthStates::array
            member(0) E6235322-A3C5-194D-17B5-6573F77E04A1
            member(1) 1EFF7F44-F037-444F-BD0E-A2F59B36847E
        PartLinks *nullArray*
        IsSupported False
        IsFragile False
        IsNetworkable True
        IsWindow False
        AnimatePhysics False
    VehicleConfig 360168D5-1442-42BA-A158-56CEEC950AE4
    GearboxConfig 865D93BF-5382-40D5-882B-6E61F36EF6B0
    AlwaysFullThrottle True
    WaterEffects *nullArray*
    WaterStreakEffects *nullArray*
    TriggerGroundEffectImpulse 0.0
    LandingGearLogic *nullGuid*
    ForceLandingGearsRetract False
    AllowNegativeThrottle False
CompareEntityData C5C86C18-103B-4FBA-BF5E-E066FCBBBBF2
    $::EntityData
        $::GameObjectData
            $::GameDataContainer
                $::DataContainer
            IsEventConnectionTarget 3
            IsPropertyConnectionTarget 2
            IndexInBlueprint 6
    Realm Realm_Client
    Operator CompareOp_LessOrEqual
    FloatIn0 0.0
    FloatIn1 0.0
    IntIn0 0
    IntIn1 0
CustomizeSoldierEntityData BE5CF6DF-D125-493A-9FEC-DCB6954C88F8
    $::CustomizeBaseEntityData
        $::EntityData
            $::GameObjectData
                $::GameDataContainer
                    $::DataContainer
                IsEventConnectionTarget 1
                IsPropertyConnectionTarget 3
                IndexInBlueprint 12
        Realm Realm_Server
    CustomizeSoldierData Characters/Soldiers/Customizations/MP_Pilot_Heli_US/813689C7-B9BC-4111-962D-C981C033E6BC
CustomizeSoldierEntityData 0288736F-F644-4DB3-AC6C-503FB9EDB850
    $::CustomizeBaseEntityData
        $::EntityData
            $::GameObjectData
                $::GameDataContainer
                    $::DataContainer
                IsEventConnectionTarget 1
                IsPropertyConnectionTarget 3
                IndexInBlueprint 13
        Realm Realm_Server
    CustomizeSoldierData Vehicles/common/RestoreCustomizeSoldier/32F474A7-9782-E701-611A-DBF08DC2657B
CustomizeSoldierEntityData 53E8113D-BA38-48EF-92F9-13EE48185E0D
    $::CustomizeBaseEntityData
        $::EntityData
            $::GameObjectData
                $::GameDataContainer
                    $::DataContainer
                IsEventConnectionTarget 1
                IsPropertyConnectionTarget 3
                IndexInBlueprint 14
        Realm Realm_Server
    CustomizeSoldierData Characters/Soldiers/Customizations/MP_Pilot_Heli_RU/D10B2080-620A-43FB-BCA9-BD0400B95258
EffectComponentData FA54904C-FE9C-4F26-AC7A-71CD94A43442
    $::ComponentData
        $::GameObjectData
            $::GameDataContainer
                $::DataContainer
            IsEventConnectionTarget 3
            IsPropertyConnectionTarget 3
            IndexInBlueprint 65535
        Transform::LinearTransform
            right::Vec3
                x 1.0
                y 0.0
                z 0.0
            up::Vec3
                x 0.0
                y 1.0
                z 0.0
            forward::Vec3
                x 0.0
                y 0.0
                z 1.0
            trans::Vec3
                x 0.0
                y 0.0
                z 0.0
        Components *nullArray*
        Excluded False
    Effect FX/Weapons/Trails/FX_Trail_ThickSmoke_LongLived/0254650F-73FD-45CC-901B-7BA260009B5B
    AutoStart True
    SnapToWaterSurface False
    EmitterParameter1 0.0
    EmitterParameter2 0.0
    EmitterParameter3 0.0
EffectComponentData 37024431-B930-48AB-9BD9-465AEFF3537D
    $::ComponentData
        $::GameObjectData
            $::GameDataContainer
                $::DataContainer
            IsEventConnectionTarget 3
            IsPropertyConnectionTarget 3
            IndexInBlueprint 65535
        Transform::LinearTransform
            right::Vec3
                x 1.0
                y 0.0
                z 0.0
            up::Vec3
                x 0.0
                y 1.0
                z 0.0
            forward::Vec3
                x 0.0
                y 0.0
                z 1.0
            trans::Vec3
                x 0.0
                y 0.0
                z 0.0
        Components *nullArray*
        Excluded False
    Effect FX/Weapons/TrailEngine/FX_TrailEngine_Generic/4B6EFCC3-7F1D-472B-9954-F3191CD0200E
    AutoStart True
    SnapToWaterSurface False
    EmitterParameter1 0.0
    EmitterParameter2 0.0
    EmitterParameter3 0.0
EngineComponentData 64DDEF59-A6D0-4F7E-8990-270C6BE480A8
    $::ComponentData
        $::GameObjectData
            $::GameDataContainer
                $::DataContainer
            IsEventConnectionTarget 3
            IsPropertyConnectionTarget 3
            IndexInBlueprint 65535
        Transform::LinearTransform
            right::Vec3
                x 1.0
                y 0.0
                z 0.0
            up::Vec3
                x 0.0
                y 1.0
                z 0.0
            forward::Vec3
                x 0.0
                y 0.0
                z 1.0
            trans::Vec3
                x 0.0
                y 0.0
                z 0.0
        Components *nullArray*
        Excluded False
    Config 54A39570-E8D8-4A5F-8CFC-118E10F9732A
    SoundEffect *nullGuid*
    SurfaceSoundEffect *nullGuid*
    UseFirstPersonSounds False
    OutputIsEngineInWater False
EventGateEntityData 10F0AF77-CB9C-476B-8DA8-4849257BA103
    $::EntityData
        $::GameObjectData
            $::GameDataContainer
                $::DataContainer
            IsEventConnectionTarget 0
            IsPropertyConnectionTarget 3
            IndexInBlueprint 10
    Default False
    Realm Realm_Client
FloatHubEntityData ACB73FD2-65C7-4BD1-9A71-2858417DF2F3
    $::EntityData
        $::GameObjectData
            $::GameDataContainer
                $::DataContainer
            IsEventConnectionTarget 3
            IsPropertyConnectionTarget 2
            IndexInBlueprint 8
    Realm Realm_Client
    InputCount 2
    InputSelect 0
FloatPropertyTrackData E79FC4E0-830A-4809-8E39-A66049692AC9
    $::SimplePropertyTrackData
        $::PropertyTrackData
            $::DataContainer
            Id -702042979
            Times::array
                member(0) 0
                member(1) 2332
        InterpolationType InterpolationType_None
    Values::array
        member(0) 20.0
        member(1) 100.0
GearboxConfigData 865D93BF-5382-40D5-882B-6E61F36EF6B0
    $::DataContainer
    ForwardGearRatios::array
        member(0) 1.0
    ForwardGearSpeeds::array
        member(0) 1500.0
    ReverseGearRatios::array
        member(0) -1.0
    ReverseGearSpeeds::array
        member(0) 1500.0
    GearboxType 1
    GearboxMode 0
    GearChangeTime 0.0625
    GearDownSpeedFactor 0.800000011921
    OppositeDirGearChangeMaxSpeed 50.0
    OppositeDirGearChangeTime 0.125
    ClutchSpeedFactor 10.0
    TransmissionEfficiency 1.0
    UseAutoClutch True
    UseClassicGearBoxAutoClutch False
    UseNeutralGear True
    LimitBackwardThrottle False
    BackwardThrottleLimit 50.0
HavokAsset 17E40C22-C16E-B653-B808-A8B3D8AE4D67
    $::Asset
        $::DataContainer
        Name Vehicles/common/WeaponData/AGM-144_Hellfire_TV_Physics_0_Win32
    Scale 1.0
    ExternalAssets *nullArray*
HealthStateData E6235322-A3C5-194D-17B5-6573F77E04A1
    $::DataContainer
    Objects *nullArray*
    LoosePartPhysics *nullArray*
    SpawnedBangerBlueprint *nullGuid*
    CopyDamageToBanger True
    SpawnedBangerImpulseParams *nullGuid*
    PhysicsEnabled True
    Health 100000.0
    PartIndex 0
    CanSupportOtherParts True
HealthStateData 1EFF7F44-F037-444F-BD0E-A2F59B36847E
    $::DataContainer
    Objects *nullArray*
    LoosePartPhysics *nullArray*
    SpawnedBangerBlueprint *nullGuid*
    CopyDamageToBanger True
    SpawnedBangerImpulseParams *nullGuid*
    PhysicsEnabled True
    Health 0.0
    PartIndex 4294967295
    CanSupportOtherParts False
JetEngineConfigData 54A39570-E8D8-4A5F-8CFC-118E10F9732A
    $::EngineConfigData
        $::DataContainer
        Position::Vec3
            x 0.0
            y 0.0
            z 0.10000000149
        RpmCurvePoints::array
            member(0) 0.0
            member(1) 10000.0
        TorqueCurvePoints::array
            member(0) 0.0
            member(1) 500.0
        RpmMin 0.0
        RpmMax 10000.0
        RpmCut 9500.0
        EnginePowerMultiplier 5.0
        InternalAccelerationFactor 5.0
        InternalDeaccelerationFactor 0.5
        Boost::Boost
            ForwardStrength 1.0
            ReverseStrength 1.0
            DissipationTime 1.0
            RecoveryTime 1.0
            CrawlStrength 1.0
            AccelerationScale 1.0
    DirectionVectorIndex 2
    ForceMagnitudeMultiplier 5.0
    AngleInputYMultiplier 20.0
    AngleInputPitchMultiplier 20.0
    MaxVelocity 550.0
    IsTurnable True
    IsWaterJetEngine False
    PowerFadeOutRange::Vec2
        x 1000.0
        y 1500.0
LogicReferenceObjectData FEF4A3F7-5B64-41F8-8FAF-853CD9ADC706
    $::ReferenceObjectData
        $::GameObjectData
            $::GameDataContainer
                $::DataContainer
            IsEventConnectionTarget 3
            IsPropertyConnectionTarget 2
            IndexInBlueprint 9
        BlueprintTransform::LinearTransform
            right::Vec3
                x 1.0
                y 0.0
                z 0.0
            up::Vec3
                x 0.0
                y 1.0
                z 0.0
            forward::Vec3
                x 0.0
                y 0.0
                z 1.0
            trans::Vec3
                x 0.0
                y 0.0
                z 0.0
        Blueprint Vehicles/common/DefaultMissileHUD/6446D860-E687-4FD1-C0F6-28F0A850FA18
        ObjectVariation *nullGuid*
        StreamRealm StreamRealm_None
        CastSunShadowEnable True
        Excluded False
    SubRealm SubRealm_All
LogicVisualEnvironmentEntityData C693D598-F1B6-4213-AB2B-1E454B00C5BE
    $::EntityData
        $::GameObjectData
            $::GameDataContainer
                $::DataContainer
            IsEventConnectionTarget 0
            IsPropertyConnectionTarget 3
            IndexInBlueprint 3
    VisualEnvironment FX/VisualEnviroments/Fullscreen/VE_TankScreen_FullStatic/484AEBE4-B687-473E-ADB9-CF38C9BE2962
    Visibility 1.0
LogicVisualEnvironmentEntityData 5B09868D-5464-4819-BB4A-A57A10B48D09
    $::EntityData
        $::GameObjectData
            $::GameDataContainer
                $::DataContainer
            IsEventConnectionTarget 0
            IsPropertyConnectionTarget 3
            IndexInBlueprint 4
    VisualEnvironment FX/VisualEnviroments/Fullscreen/VE_BW_MFD/DDC279C6-2D8D-4330-B6D8-BC7E61B917CC
    Visibility 1.0
MotionDampingData 2E99706B-B20F-4E7C-A33A-BA7CA09D05F6
    $::DataContainer
    LinearModifier::Vec3
        x 1.0
        y 1.0
        z 1.0
    Pitch 0.20000000298
    Yaw 0.20000000298
    Roll 0.20000000298
    Linear 0.0
PhysicsEntityData A74302C3-1DEF-BDF8-7A91-AF82052F101C
    $::EntityData
        $::GameObjectData
            $::GameDataContainer
                $::DataContainer
            IsEventConnectionTarget 3
            IsPropertyConnectionTarget 3
            IndexInBlueprint 65535
    Asset *nullGuid*
    ScaledAssets::array
        member(0) 17E40C22-C16E-B653-B808-A8B3D8AE4D67
    RigidBodies::array
        member(0) 0C153C42-8C87-1B5D-4B63-FB716A0C01D0
        member(1) 52310D20-25F7-F657-E1F1-FF133D2E9437
    EncapsulatePartsInLists False
    FloatPhysics *nullGuid*
    Mass 1000010.0
    InertiaModifier::Vec3
        x 1.0
        y 1.0
        z 1.0
    Friction 1000010.0
    Restitution 1000010.0
    AngularVelocityDamping -1.0
    LinearVelocityDamping -1.0
    Proximity *nullGuid*
    Constraints *nullArray*
    MovableParts True
RemoteEntryComponentData 7B0181B4-D65F-43F8-AF50-CAEF929198C0
    $::EntryComponentData
        $::ComponentData
            $::GameObjectData
                $::GameDataContainer
                    $::DataContainer
                IsEventConnectionTarget 3
                IsPropertyConnectionTarget 3
                IndexInBlueprint 65535
            Transform::LinearTransform
                right::Vec3
                    x 1.0
                    y 0.0
                    z 0.0
                up::Vec3
                    x 0.0
                    y 1.0
                    z 0.0
                forward::Vec3
                    x 0.0
                    y 0.0
                    z 1.0
                trans::Vec3
                    x 0.0
                    y 0.0
                    z 0.0
            Components *nullArray*
            Excluded False
        EntryClass ecPrimary
        AIData FEB9CDE1-B605-C40B-7600-0A79989FC18C
        ForbiddenForHuman False
        InputConceptDefinition Input/VeniceMAVInputConcepts/E4325AD2-906F-4F96-875A-D95FBCE2153F
        InputMapping Input/DefaultVehicleInputMapping/5C6A8FCA-2D3F-4CD7-8433-1120C9A89DFE
        InputCurves *nullArray*
        HudData::EntryComponentHudData
            Index 0
            Frustum False
            Visible True
            SeatType EST_Driver
            MaximizeMiniMapOnEntry False
        EntryOrderNumber 0
        EnterImpulse 0.0
        EntryRadius 0.0
        IsAllowedToExitInAir False
        IsShielded False
        LockSoldierAimingToEntry True
        ShowSoldierInEntry True
        Show1pSoldierInEntry False
        SoldierTransitionInvisbleTime 0.0750000029802
        NumberOfStances 1
        StancesEnabled False
        EntrySpottingSettings ESSDefault
        ShowSoldierWeaponInEntry False
        Show1pSoldierInEntryForPlayerOnly False
        HideSoldierForPassengers False
        Show3pSoldierWeaponInEntry True
        ShowSoldierGearInEntry False
        PoseConstraints::PoseConstraintsData
            StandPose True
            CrouchPose True
            PronePose True
        SoldierOffset::Vec3
            x 0.0
            y 0.0
            z 0.0
        EntryComponentSound *nullGuid*
        TriggerEventOnKey EIAUndefined
RigidBodyData 0C153C42-8C87-1B5D-4B63-FB716A0C01D0
    $::DataContainer
    RigidBodyType RBTypeCollision
    Mass 5000.0
    Friction 0.5
    Restitution 0.40000000596
    InertiaModifier::Vec3
        x 1.0
        y 1.0
        z 1.0
    AngularVelocityDamping -1.0
    LinearVelocityDamping -1.0
    InteractionToolkitCollisionVolumeId 0
    MotionType RigidBodyMotionType_Dynamic
    QualityType RigidBodyQualityType_Invalid
    CollisionLayer RigidBodyCollisionLayer_VehicleLayer
    FloatPhysics *nullGuid*
    Constraints *nullArray*
RigidBodyData 52310D20-25F7-F657-E1F1-FF133D2E9437
    $::DataContainer
    RigidBodyType RBTypeRaycast
    Mass 0.0
    Friction 0.5
    Restitution 0.40000000596
    InertiaModifier::Vec3
        x 1.0
        y 1.0
        z 1.0
    AngularVelocityDamping -1.0
    LinearVelocityDamping -1.0
    InteractionToolkitCollisionVolumeId 0
    MotionType RigidBodyMotionType_Fixed
    QualityType RigidBodyQualityType_Invalid
    CollisionLayer RigidBodyCollisionLayer_Invalid
    FloatPhysics *nullGuid*
    Constraints *nullArray*
SequenceEntityData 51D3B797-29ED-4489-A208-ACC5482DDC03
    $::EntityData
        $::GameObjectData
            $::GameDataContainer
                $::DataContainer
            IsEventConnectionTarget 2
            IsPropertyConnectionTarget 3
            IndexInBlueprint 2
    Events::array
        member(0)::SequenceEventData
            Event::EventSpec
                Id -115595936 (ForceStatic)
            Time 6498
    SequenceStartTime 0
    SequenceLength 7000
    Looping False
    AutoStart False
    AutoPlayFirstFrame False
    PlayInReverse False
    Realm Realm_ClientAndServer
    PropertyTracks::array
        member(0) E79FC4E0-830A-4809-8E39-A66049692AC9
    CustomSequenceTracks *nullArray*
    ClientUpdatePass UpdatePass_PostFrame
    ServerUpdatePass UpdatePass_PreSim
    ExternalTime 0.0
StaticCameraData FF11B44A-28C0-4166-AD19-2573ED8D0C0D
    $::TargetCameraData
        $::CameraData
            $::GameObjectData
                $::GameDataContainer
                    $::DataContainer
                IsEventConnectionTarget 3
                IsPropertyConnectionTarget 3
                IndexInBlueprint 65535
            OcclusionRayOffset::Vec3
                x 0.0
                y 0.0
                z 0.0
            PreFadeTime 0.0
            FadeTime 0.0
            FadeWaitTime 0.0
            StayFadedWhileStreaming False
            ViewFx *nullGuid*
            NearPlane -1.0
            ShadowViewDistanceScale 1.0
            SoundOcclusion 0.0
            SoundListenerRadius 0.5
            ShakeFactor 1.0
        Hud::HudData
            CrosshairScaleMin 0.0
            CrosshairScaleMax 5.0
            CrosshairOpacityMin 1.0
            CrosshairOpacityMax 0.10000000149
            CrosshairOpacityModifier 1.0
            CrosshairTypeId *nullString*
            WeaponClass *nullString*
            ShowMinimap True
            HideAmmo False
            LowAmmoWarning 0.300000011921
            ReloadPrompt 0.300000011921
            InfiniteAmmo False
            HideCrosshairWhenAimOnFriend True
            UseRenderTarget True
            RenderTargetIndex 0
            HudPropertyList 1E1DD39D-EA6A-4B9A-923C-A761254D1B4F
            UseRangeMeter True
            UseAimWarning True
            UsePredictedSight False
            UseWeaponOrientations False
            UseVelocityVectorMarker False
            UseLockingController False
            UseThrust True
            UseGForce True
            UseSkidSlip True
            UseClimbRate True
            SeaLevelAltFreq 0.0
            CameraShakeModifier 1.0
        UIParts *nullArray*
    LeftCurve *nullArray*
    RightCurve *nullArray*
    UpCurve *nullArray*
    DownCurve *nullArray*
    MirrorHorizontalCurves False
    MirrorVerticalCurves False
    LoosePartPhysics *nullArray*
    LeftYawAngle 0.0
    RightYawAngle 0.0
    UpPitchAngle 0.0
    DownPitchAngle 0.0
    AverageFilterFrames 10
    YawInputAction EIARoll
    PitchInputAction EIAPitch
    AccumulateInput True
    ResetAccumulatedInputOnViewChange True
    YawSensitivityNonZoomed 0.0
    YawSensitivityZoomed 0.0
    PitchSensitivityNonZoomed 0.0
    PitchSensitivityZoomed 0.0
TeamFilterEntityData 0B9A7102-F6B2-4B36-A244-B682FCB09719
    $::GameEntityData
        $::SpatialEntityData
            $::EntityData
                $::GameObjectData
                    $::GameDataContainer
                        $::DataContainer
                    IsEventConnectionTarget 1
                    IsPropertyConnectionTarget 3
                    IndexInBlueprint 11
            Transform::LinearTransform
                right::Vec3
                    x 1.0
                    y 0.0
                    z 0.0
                up::Vec3
                    x 0.0
                    y 1.0
                    z 0.0
                forward::Vec3
                    x 0.0
                    y 0.0
                    z 1.0
                trans::Vec3
                    x 0.0
                    y 0.0
                    z 0.0
        Enabled True
        Components *nullArray*
        RuntimeComponentCount 0
    Realm Realm_Server
    InvertFilter False
    Team Team1
    GenerateEventForEveryMatchingTeamMember False
TeamFilterEntityData A82C7921-E5B8-4456-AC3E-2C27F13D4BE3
    $::GameEntityData
        $::SpatialEntityData
            $::EntityData
                $::GameObjectData
                    $::GameDataContainer
                        $::DataContainer
                    IsEventConnectionTarget 1
                    IsPropertyConnectionTarget 3
                    IndexInBlueprint 15
            Transform::LinearTransform
                right::Vec3
                    x 1.0
                    y 0.0
                    z 0.0
                up::Vec3
                    x 0.0
                    y 1.0
                    z 0.0
                forward::Vec3
                    x 0.0
                    y 0.0
                    z 1.0
                trans::Vec3
                    x 0.0
                    y 0.0
                    z 0.0
        Enabled True
        Components *nullArray*
        RuntimeComponentCount 0
    Realm Realm_Server
    InvertFilter False
    Team Team2
    GenerateEventForEveryMatchingTeamMember False
UIPartPropertyList 1E1DD39D-EA6A-4B9A-923C-A761254D1B4F
    $::DataContainer
    HudPropertyList::array
        member(0)::UIPartProperties
            Identifier HCI_RangeMeter
            Range 200.0
            Frequency 6.0
            CompensateFreelook False
VehicleBlueprint 0DD3BA2E-4434-371C-8383-0E11272D7F1C #primary instance
    $::ObjectBlueprint
        $::Blueprint
            $::EntityBusData
                $::DataBusData
                    $::Asset
                        $::DataContainer
                        Name Vehicles/common/WeaponData/AGM-144_Hellfire_TV
                    PropertyConnections::array
                        member(0)::PropertyConnection
                            Source E68C2506-F680-4198-8750-CC9A6106BEBA
                            Target DAE9C29E-051D-45D7-B67F-ABA0A96F737A
                            SourceFieldId -709588 (ActiveForLocalPlayer)
                            TargetFieldId 225375086 (Value)
                        member(1)::PropertyConnection
                            Source D9183C94-D7DC-9809-30CA-721793BB2E04
                            Target C5C86C18-103B-4FBA-BF5E-E066FCBBBBF2
                            SourceFieldId -1835991333 (CurrentVelocity)
                            TargetFieldId 1718513826 (FloatIn0)
                        member(2)::PropertyConnection
                            Source C5C86C18-103B-4FBA-BF5E-E066FCBBBBF2
                            Target 707C7F51-3FFD-4A61-A50F-CA8D007E97F9
                            SourceFieldId 193453899 (Out)
                            TargetFieldId 225375086 (Value)
                        member(3)::PropertyConnection
                            Source ACB73FD2-65C7-4BD1-9A71-2858417DF2F3
                            Target C5C86C18-103B-4FBA-BF5E-E066FCBBBBF2
                            SourceFieldId 193453899 (Out)
                            TargetFieldId 1718513827 (FloatIn1)
                        member(4)::PropertyConnection
                            Source 51D3B797-29ED-4489-A208-ACC5482DDC03
                            Target ACB73FD2-65C7-4BD1-9A71-2858417DF2F3
                            SourceFieldId -702042979
                            TargetFieldId 193450867 (In1)
                        member(5)::PropertyConnection
                            Source E68C2506-F680-4198-8750-CC9A6106BEBA
                            Target FEF4A3F7-5B64-41F8-8FAF-853CD9ADC706
                            SourceFieldId -709588 (ActiveForLocalPlayer)
                            TargetFieldId 567023394
                    LinkConnections *nullArray*
                EventConnections::array
                    member(0)::EventConnection
                        Source DAE9C29E-051D-45D7-B67F-ABA0A96F737A
                        Target 5B09868D-5464-4819-BB4A-A57A10B48D09
                        SourceEvent::EventSpec
                            Id -1433512622 (OnTrue)
                        TargetEvent::EventSpec
                            Id -1952177180 (Enable)
                        TargetType EventConnectionTargetType_Client
                    member(1)::EventConnection
                        Source DAE9C29E-051D-45D7-B67F-ABA0A96F737A
                        Target 5B09868D-5464-4819-BB4A-A57A10B48D09
                        SourceEvent::EventSpec
                            Id -81881639 (OnFalse)
                        TargetEvent::EventSpec
                            Id -117303631 (Disable)
                        TargetType EventConnectionTargetType_Client
                    member(2)::EventConnection
                        Source 707C7F51-3FFD-4A61-A50F-CA8D007E97F9
                        Target C693D598-F1B6-4213-AB2B-1E454B00C5BE
                        SourceEvent::EventSpec
                            Id -81881639 (OnFalse)
                        TargetEvent::EventSpec
                            Id -117303631 (Disable)
                        TargetType EventConnectionTargetType_Client
                    member(3)::EventConnection
                        Source DAE9C29E-051D-45D7-B67F-ABA0A96F737A
                        Target C693D598-F1B6-4213-AB2B-1E454B00C5BE