Partition 2D2A9E2C-866E-42BE-B1E3-69255CD3F730
AIEntryData 08BFEC8B-9204-EE77-79B6-F815E7E0A7BA
	$::GameAIEntryData
		$::Asset
			$::DataContainer
			Name 
	EquipmentType *nullGuid*
	Armament *nullGuid*
	Mobility *nullGuid*
	StrengthType Infantry
	ReuseTime 0.0
	Forbidden True
	HasExposedSoldier False
	InterludeOnly False
	InvalidForAI False
AIEntryData 3282B39A-A1A5-07B4-E3E3-3AAB1A82C20F
	$::GameAIEntryData
		$::Asset
			$::DataContainer
			Name 
	EquipmentType *nullGuid*
	Armament *nullGuid*
	Mobility *nullGuid*
	StrengthType Infantry
	ReuseTime 0.0
	Forbidden True
	HasExposedSoldier False
	InterludeOnly False
	InvalidForAI False
AIWeaponData BA31A593-BABD-9E3B-C097-3DB096E835E4
	$::GameAIWeaponData
		$::Asset
			$::DataContainer
			Name 
	Strengths::Strengths
		Infantry 0.0
		LightArmour 0.0
		HeavyArmour 0.0
		Helicopter 0.0
	Indirect False
	IsAiAllowed True
	UseFromCover False
	DisableWeaponSway False
	MinRange 0.0
	MaxRange 0.0
	OptimalRangePercentage 0.0
	ReloadBehavior RbInCover
	MinExtraReloadTime 0.0
	MaxExtraReloadTime 0.0
	AllowedAgainstImmortals True
	CanSuppress True
	CanAltAttack False
	IsStandStill False
	IsMelee False
	IsBlindFireAllowed True
	WaitTimeBeforeFire 0.0
	BurstLimitNear::BurstLimit
		Min 0
		Max 0
	BurstLimitFar::BurstLimit
		Min 0
		Max 0
	MinBurstCoolDownTime 1.0
	MaxBurstCoolDownTime 2.0
	LostTargetBurstCoolDownModifier 2.0
	AimTransitionFireDelay 0.3499999940395355
	AimAngularVelocity 0.0
	AngleToTargetSnap 0.0
	AimWhileReloading True
	UseZoom False
	AimOrigin AoDefault
	GravityModifier 1.0
	AimHighIndirectPath False
	MinimumAccuracyBeforeFiring 7.0
	AdditionalMinimumAccuracyAtMinRange 0.0
	SweepFirstAttack False
	SweepType SstTargetLost
	SweepDistance 0.0
	SweepTime 0.5
	InnerInaccurateDistance 5.0
	OuterInaccurateDistance 10.0
	InaccuracyFollowsTarget True
	UseInaccuracyAtCloseRange False
	StartAccuracyPercentage 0.5
	FinalAccuracyPercentage 0.5
AeroDynamicPhysicsData B2C5563E-9D5A-4178-86D0-7BB7ED577F52
	$::DataContainer
	BodyDrag::Vec3
		x 0.0
		y 0.0
		z 0.0035000001080334187
	BodyDragOffsetYZ::Vec3
		x 0.0
		y 0.0
		z 0.0
	BodyDragOffsetXZ::Vec3
		x 0.0
		y 0.0
		z 0.0
	BodyDragOffsetXY::Vec3
		x 0.0
		y 0.0
		z 0.0
AirRadarData 368FEAB2-C7AD-45BC-8416-FDF787C19BF9
	$::UIPartData
		$::DataContainer
	RadarRange 1500.0
	RadarSensitivity -1.0
	HeatSensitivity 1.0
	TrackLaserPaintedObjects True
	TrackOnlyUsedVehicles True
	FriendlyIcon UIHudIcon_SnapOvalArrow
	EnemyIcon UIHudIcon_SpottedPosition
	MissileIcon UIHudIcon_NonSelectableSpawnPoint
	LaserPaintedIcon UIHudIcon_SelectedSpawnPoint
	CenterIcon UIHudIcon_Jet
	NorthIcon UIHudIcon_North
	SouthIcon UIHudIcon_North
	EastIcon UIHudIcon_North
	WestIcon UIHudIcon_North
	SubScreen::SubScreenData
		ProjectionAngleX 0.0
		ProjectionAngleY 0.0
		ProjectionAngleZ 0.0
		ScreenPosition::Vec3
			x 0.9240000247955322
			y 0.0
			z 0.15000000596046448
		ScreenSize 0.14000000059604645
		IconSize 20.0
		ScaleIconSizeByDepthStrength 1.0
		UseRenderTarget False
		RenderTargetIndex 0
		RenderTargetApectRatio 1.5499999523162842
	UseCameraComponentTransform False
AirRadarData 2A54CB99-FE14-4E3E-8841-7E4ED155B523
	$::UIPartData
		$::DataContainer
	RadarRange 1500.0
	RadarSensitivity -1.0
	HeatSensitivity 1.0
	TrackLaserPaintedObjects True
	TrackOnlyUsedVehicles True
	FriendlyIcon UIHudIcon_SnapOvalArrow
	EnemyIcon UIHudIcon_SpottedPosition
	MissileIcon UIHudIcon_NonSelectableSpawnPoint
	LaserPaintedIcon UIHudIcon_SelectedSpawnPoint
	CenterIcon UIHudIcon_Jet
	NorthIcon UIHudIcon_North
	SouthIcon UIHudIcon_North
	EastIcon UIHudIcon_North
	WestIcon UIHudIcon_North
	SubScreen::SubScreenData
		ProjectionAngleX 0.0
		ProjectionAngleY 0.0
		ProjectionAngleZ 0.0
		ScreenPosition::Vec3
			x 0.9240000247955322
			y 0.0
			z 0.15000000596046448
		ScreenSize 0.14000000059604645
		IconSize 20.0
		ScaleIconSizeByDepthStrength 1.0
		UseRenderTarget False
		RenderTargetIndex 0
		RenderTargetApectRatio 1.5499999523162842
	UseCameraComponentTransform False
AlternateCameraViewData 8EA80135-ECD9-4785-946F-C9DF322C8314
	$::DataContainer
	FieldOfView 80.0
	AllowFieldOfViewScaling False
	FovTransitionTime 0.10000000149011612
	WorldSpaceLockEfficiency 0.0
	Mesh vehicles/common/jethudtest_Mesh/C91AC554-F74F-11DD-8ED4-886091482761
	MaskMeshBlueprint *nullGuid*
	LockMeshToRenderView False
	MeshOffset::Vec3
		x 0.0
		y 0.009999999776482582
		z 0.3499999940395355
	Hud::HudData
		CrosshairScaleMin 0.0
		CrosshairScaleMax 5.0
		CrosshairOpacityMin 1.0
		CrosshairOpacityMax 0.10000000149011612
		CrosshairOpacityModifier 1.0
		CrosshairTypeId f16_pilot
		WeaponClass 
		ShowMinimap False
		HideAmmo False
		LowAmmoWarning 0.30000001192092896
		ReloadPrompt 0.30000001192092896
		InfiniteAmmo False
		HideCrosshairWhenAimOnFriend True
		UseRenderTarget False
		RenderTargetIndex 0
		HudPropertyList *nullGuid*
		UseRangeMeter False
		UseAimWarning True
		UsePredictedSight True
		UseWeaponOrientations False
		UseVelocityVectorMarker True
		UseLockingController True
		UseThrust True
		UseGForce True
		UseSkidSlip False
		UseClimbRate False
		SeaLevelAltFreq 0.0
		CameraShakeModifier 1.0
	FadeToBlack False
	FadeInDuration 0.10000000149011612
	FadeOutDuration 0.10000000149011612
	BlackDuration 0.10000000149011612
	InputSuppression::InputSuppressionData
		SuppressVehicleInput::array
			member(0)::ActionSuppressor
				ActionToSuppress EIAPitch
				SuppressingValue 0.0
			member(1)::ActionSuppressor
				ActionToSuppress EIARoll
				SuppressingValue 0.0
	ToggleViewChange False
	UseProfileOptionForToggleViewChange False
	FLIREnabled False
	ScreenExposureAreaScale 1.0
BangerSpawnImpulseParams 862D4538-AD37-4D5E-A236-D2F62EF63A27
	$::DataContainer
	MinHorizontalAngle -90.0
	MaxHorizontalAngle 90.0
	MinVerticalAngle 45.0
	MaxVerticalAngle 85.0
	MinStrength 15000.0
	MaxStrength 15000.0
	WaterStrengthModifier 0.007000000216066837
	LinearDamping 0.0
	AngularDamping 0.05000000074505806
BangerSpawnImpulseParams C68D4359-7947-434C-AD73-92351B604D44
	$::DataContainer
	MinHorizontalAngle -90.0
	MaxHorizontalAngle -45.0
	MinVerticalAngle 45.0
	MaxVerticalAngle 45.0
	MinStrength 15000.0
	MaxStrength 15000.0
	WaterStrengthModifier 0.007000000216066837
	LinearDamping 0.0
	AngularDamping 0.05000000074505806
BangerSpawnImpulseParams 7C4313DF-2C4F-4A0A-9361-26DC9B2129FD
	$::DataContainer
	MinHorizontalAngle 45.0
	MaxHorizontalAngle 90.0
	MinVerticalAngle 45.0
	MaxVerticalAngle 90.0
	MinStrength 15000.0
	MaxStrength 15000.0
	WaterStrengthModifier 0.007000000216066837
	LinearDamping 0.0
	AngularDamping 0.05000000074505806
BangerSpawnImpulseParams 38D2BE06-344B-4186-9103-05969C09542D
	$::DataContainer
	MinHorizontalAngle -90.0
	MaxHorizontalAngle 90.0
	MinVerticalAngle 45.0
	MaxVerticalAngle 85.0
	MinStrength 15000.0
	MaxStrength 15000.0
	WaterStrengthModifier 0.007000000216066837
	LinearDamping 0.0
	AngularDamping 0.05000000074505806
CameraComponentData 674E02BF-381D-4B5F-B7F1-C2E83A2EDB40
	$::ComponentData
		$::GameObjectData
			$::GameDataContainer
				$::DataContainer
			IsEventConnectionTarget 3
			IsPropertyConnectionTarget 3
			IndexInBlueprint 65535
		Transform::LinearTransform
			right::Vec3
				x 1.0
				y 0.0
				z 0.0
			up::Vec3
				x 0.0
				y 0.9941436052322388
				z 0.10806707292795181
			forward::Vec3
				x 0.0
				y -0.10806707292795181
				z 0.9941436052322388
			trans::Vec3
				x 0.0
				y 0.982785701751709
				z 0.9634095430374146
		Components *nullArray*
		Excluded False
	Camera E65BCD4C-FD86-47AA-88C2-84375CC6B9B4
	FieldOfView 45.0
	ForceFieldOfView -1.0
	EnableCameraMesh True
	AlternateView 8EA80135-ECD9-4785-946F-C9DF322C8314
	RegularView::RegularCameraViewData
		FLIREnabled False
		InputSuppression::InputSuppressionData
			SuppressVehicleInput *nullArray*
		FieldOfView 80.0
		AllowFieldOfViewScaling False
		Mesh vehicles/common/jethudtest_Mesh/C91AC554-F74F-11DD-8ED4-886091482761
		MaskMeshBlueprint *nullGuid*
		LockMeshToRenderView False
		MeshOffset::Vec3
			x 0.0
			y 0.009999999776482582
			z 0.3499999940395355
		ScreenExposureAreaScale 1.0
	AlternateViewEnabled True
	FreezeHeight 0.0
	IsFirstPerson True
	SoldierAnimatedCamera::SoldierAnimatedCameraData
		EnableFeature False
		CameraTransitionTime 0.5
	ReceiveImpulsesAsThirdPerson False
	UseCameraTransition False
	CameraTransitionPos::Vec3
		x 0.0
		y 0.0
		z 0.0
	CameraTransitionTime 0.10000000149011612
	MeshParentComponentNumber 0
	StanceData::StanceCameraData
		ValidStances::array
			member(0) 0
			member(1) 1
		DefaultCameraForStances::array
			member(0) 0
			member(1) 1
	CameraSoundData *nullGuid*
	IgnoreOwnerOrientation False
CameraComponentData 9CD1B970-9DD1-4741-8EAD-991F420085EA
	$::ComponentData
		$::GameObjectData
			$::GameDataContainer
				$::DataContainer
			IsEventConnectionTarget 3
			IsPropertyConnectionTarget 3
			IndexInBlueprint 65535
		Transform::LinearTransform
			right::Vec3
				x 1.0
				y 0.0
				z 0.0
			up::Vec3
				x 0.0
				y 0.9873642921447754
				z 0.15846659243106842
			forward::Vec3
				x 0.0
				y -0.15846659243106842
				z 0.9873642921447754
			trans::Vec3
				x 0.0
				y 1.4430333375930786
				z -0.82586669921875
		Components *nullArray*
		Excluded False
	Camera AE1E18DB-93F5-4CA6-B080-9117BF30FB71
	FieldOfView 55.0
	ForceFieldOfView -1.0
	EnableCameraMesh True
	AlternateView *nullGuid*
	RegularView::RegularCameraViewData
		FLIREnabled False
		InputSuppression::InputSuppressionData
			SuppressVehicleInput *nullArray*
		FieldOfView 55.0
		AllowFieldOfViewScaling False
		Mesh levels/sp_jet/huds/helmethud_Mesh/65204949-BB9A-3A18-97C7-EF9463A6AA93
		MaskMeshBlueprint *nullGuid*
		LockMeshToRenderView False
		MeshOffset::Vec3
			x 0.0
			y 0.0
			z 0.05999999865889549
		ScreenExposureAreaScale 1.0
	AlternateViewEnabled True
	FreezeHeight 0.0
	IsFirstPerson True
	SoldierAnimatedCamera::SoldierAnimatedCameraData
		EnableFeature True
		CameraTransitionTime 0.5
	ReceiveImpulsesAsThirdPerson False
	UseCameraTransition False
	CameraTransitionPos::Vec3
		x 0.0
		y 0.0
		z 0.0
	CameraTransitionTime 0.10000000149011612
	MeshParentComponentNumber 0
	StanceData::StanceCameraData
		ValidStances::array
			member(0) 0
			member(1) 1
		DefaultCameraForStances::array
			member(0) 0
			member(1) 1
	CameraSoundData *nullGuid*
	IgnoreOwnerOrientation False
Curve2D E81675C0-0CF8-4F06-9F56-2E9C4098FAC6
	$::DataContainer
	Curve::array
		member(0)::Vec2
			x -28.0
			y -10.0
		member(1)::Vec2
			x -24.0
			y -6.0
		member(2)::Vec2
			x -10.0
			y -2.0
		member(3)::Vec2
			x -0.75
			y 0.0
		member(4)::Vec2
			x 0.75
			y 0.0
		member(5)::Vec2
			x 10.0
			y 2.0
		member(6)::Vec2
			x 24.0
			y 6.0
		member(7)::Vec2
			x 28.0
			y 10.0
Curve2D 9FB3D15E-05B1-4FEB-AAB5-A40269916EBC
	$::DataContainer
	Curve::array
		member(0)::Vec2
			x -12.5
			y 2.25
		member(1)::Vec2
			x -7.5
			y 1.25
		member(2)::Vec2
			x -5.0
			y 0.10000000149011612
		member(3)::Vec2
			x -2.0
			y 0.05000000074505806
		member(4)::Vec2
			x 0.0
			y 0.029999999329447746
		member(5)::Vec2
			x 2.0
			y 0.05000000074505806
		member(6)::Vec2
			x 5.0
			y 0.10000000149011612
		member(7)::Vec2
			x 7.5
			y 1.25
		member(8)::Vec2
			x 12.5
			y 2.25
Curve2D 6C62EFD2-7516-4798-A9A1-C5FA7E5DB0D9
	$::DataContainer
	Curve::array
		member(0)::Vec2
			x -20.0
			y -4.0
		member(1)::Vec2
			x -18.0
			y -4.0
		member(2)::Vec2
			x -10.0
			y -2.0
		member(3)::Vec2
			x 5.5
			y 3.0
		member(4)::Vec2
			x 24.0
			y 6.0
		member(5)::Vec2
			x 48.0
			y 5.0
		member(6)::Vec2
			x 72.0
			y 0.0
		member(7)::Vec2
			x 75.0
			y 0.0
Curve2D E9A65A87-25E3-40E4-8249-B6EB2A7CDD72
	$::DataContainer
	Curve::array
		member(0)::Vec2
			x -40.0
			y 100.0
		member(1)::Vec2
			x -30.0
			y 10.0
		member(2)::Vec2
			x -12.5
			y 2.25
		member(3)::Vec2
			x -7.5
			y 1.25
		member(4)::Vec2
			x -5.0
			y 0.10000000149011612
		member(5)::Vec2
			x -2.0
			y 0.05000000074505806
		member(6)::Vec2
			x 0.0
			y 0.029999999329447746
		member(7)::Vec2
			x 2.0
			y 0.05000000074505806
		member(8)::Vec2
			x 5.0
			y 0.10000000149011612
		member(9)::Vec2
			x 7.5
			y 1.25
		member(10)::Vec2
			x 12.5
			y 2.25
		member(11)::Vec2
			x 30.0
			y 10.0
		member(12)::Vec2
			x 40.0
			y 100.0
Curve2D 29AC9129-6816-4B97-866B-DD47FD8559C0
	$::DataContainer
	Curve::array
		member(0)::Vec2
			x -28.0
			y -5.0
		member(1)::Vec2
			x -24.0
			y -3.0
		member(2)::Vec2
			x -1.2999999523162842
			y -1.0
		member(3)::Vec2
			x -0.75
			y 0.0
		member(4)::Vec2
			x 0.75
			y 0.0
		member(5)::Vec2
			x 1.2999999523162842
			y 1.0
		member(6)::Vec2
			x 24.0
			y 3.0
		member(7)::Vec2
			x 28.0
			y 5.0
Curve2D 1C75C99E-5178-4BF5-9027-6D3E7699AD5D
	$::DataContainer
	Curve::array
		member(0)::Vec2
			x -90.0
			y 50.0
		member(1)::Vec2
			x -40.0
			y 10.0
		member(2)::Vec2
			x -30.0
			y 0.0
		member(3)::Vec2
			x 30.0
			y 0.0
		member(4)::Vec2
			x 40.0
			y 10.0
		member(5)::Vec2
			x 90.0
			y 50.0
Curve2D 7230A3BA-89F7-42C0-AA73-65A836632892
	$::DataContainer
	Curve::array
		member(0)::Vec2
			x -60.0
			y 0.0
		member(1)::Vec2
			x -48.0
			y -6.0
		member(2)::Vec2
			x -24.0
			y -9.0
		member(3)::Vec2
			x -5.5
			y -1.5
		member(4)::Vec2
			x 10.0
			y 1.5
		member(5)::Vec2
			x 18.0
			y 9.0
		member(6)::Vec2
			x 48.0
			y 6.0
		member(7)::Vec2
			x 72.0
			y 0.0
		member(8)::Vec2
			x 75.0
			y 0.0
Curve2D ED6C621D-74D8-4539-B96C-B29AA86FFEFB
	$::DataContainer
	Curve::array
		member(0)::Vec2
			x -45.0
			y 1.2000000476837158
		member(1)::Vec2
			x -12.0
			y 1.2000000476837158
		member(2)::Vec2
			x 0.0
			y 0.75
		member(3)::Vec2
			x 12.0
			y 2.0
		member(4)::Vec2
			x 45.0
			y 2.0
Curve2D 8455295C-AF5A-49AE-B15A-7FDB40B7447D
	$::DataContainer
	Curve::array
		member(0)::Vec2
			x 0.0
			y 1.0
		member(1)::Vec2
			x 175.0
			y 1.0
		member(2)::Vec2
			x 275.0
			y 1.100000023841858
		member(3)::Vec2
			x 300.0
			y 0.8500000238418579
		member(4)::Vec2
			x 325.0
			y 0.6499999761581421
		member(5)::Vec2
			x 350.0
			y 0.3499999940395355
		member(6)::Vec2
			x 400.0
			y 0.15000000596046448
		member(7)::Vec2
			x 800.0
			y 0.15000000596046448
DelayEntityData BCFA85FB-1519-44A2-9199-8A15987F7305
	$::EntityData
		$::GameObjectData
			$::GameDataContainer
				$::DataContainer
			IsEventConnectionTarget 0
			IsPropertyConnectionTarget 3
			IndexInBlueprint 26
	Delay 3.0
	Realm Realm_Client
	AutoStart False
	RunOnce False
	RemoveDuplicateEvents True
DelayEntityData 34EB5348-E72F-464A-A61C-DB334D4FC768
	$::EntityData
		$::GameObjectData
			$::GameDataContainer
				$::DataContainer
			IsEventConnectionTarget 0
			IsPropertyConnectionTarget 3
			IndexInBlueprint 27
	Delay 1.0
	Realm Realm_Client
	AutoStart False
	RunOnce False
	RemoveDuplicateEvents True
EffectComponentData 20E9E2BF-08B4-4A23-84E3-03E9B4356216
	$::ComponentData
		$::GameObjectData
			$::GameDataContainer
				$::DataContainer
			IsEventConnectionTarget 3
			IsPropertyConnectionTarget 3
			IndexInBlueprint 65535
		Transform::LinearTransform
			right::Vec3
				x -1.0
				y 0.0
				z 8.742277657347586e-08
			up::Vec3
				x -1.3799943977382304e-31
				y 0.9999999403953552
				z -1.57852960400897e-24
			forward::Vec3
				x -8.74227694680485e-08
				y -1.57852960400897e-24
				z -0.9999999403953552
			trans::Vec3
				x -6.4852294921875
				y 0.271074116230011
				z -3.2825262546539307
		Components *nullArray*
		Excluded False
	Effect FX/Vehicles/Misc/FX_Air_Contrail_01/3EEB2255-CF1F-E9FC-3046-71E757E36006
	AutoStart False
	SnapToWaterSurface False
	EmitterParameter1 0.0
	EmitterParameter2 0.0
	EmitterParameter3 0.0
EffectComponentData 6FF142C8-F5DE-4754-9B8E-7E6FC275D1F6
	$::ComponentData
		$::GameObjectData
			$::GameDataContainer
				$::DataContainer
			IsEventConnectionTarget 3
			IsPropertyConnectionTarget 3
			IndexInBlueprint 65535
		Transform::LinearTransform
			right::Vec3
				x 1.0
				y -8.742277657347586e-08
				z 8.742277657347586e-08
			up::Vec3
				x -8.742277657347586e-08
				y -1.0
				z -1.57852960400897e-24
			forward::Vec3
				x 8.742277657347586e-08
				y -7.64274186065882e-15
				z -1.0
			trans::Vec3
				x 6.4852294921875
				y 0.271074116230011
				z -3.2825262546539307
		Components *nullArray*
		Excluded False
	Effect FX/Vehicles/Misc/FX_Air_Contrail_01/3EEB2255-CF1F-E9FC-3046-71E757E36006
	AutoStart False
	SnapToWaterSurface False
	EmitterParameter1 0.0
	EmitterParameter2 0.0
	EmitterParameter3 0.0
EffectComponentData 114CEBC3-A2A6-4EFE-913D-F7A5A1AA2279
	$::ComponentData
		$::GameObjectData
			$::GameDataContainer
				$::DataContainer
			IsEventConnectionTarget 0
			IsPropertyConnectionTarget 3
			IndexInBlueprint 65535
		Transform::LinearTransform
			right::Vec3
				x 1.0
				y 4.371138828673793e-08
				z -4.371138828673793e-08
			up::Vec3
				x -4.371138828673793e-08
				y 1.0
				z 3.946324010022425e-25
			forward::Vec3
				x 4.371138828673793e-08
				y 1.910685465164705e-15
				z 1.0
			trans::Vec3
				x 0.4667304754257202
				y 0.12444507330656052
				z -7.809928894042969
		Components *nullArray*
		Excluded False
	Effect FX/Vehicles/Exhaust/FX_AirPlane_Afterburner_01/9EA24ACE-7522-43DA-924E-6FF84731A518
	AutoStart False
	SnapToWaterSurface False
	EmitterParameter1 0.0
	EmitterParameter2 0.0
	EmitterParameter3 0.0
EffectComponentData 85497827-4436-4F90-8482-089CCEE18493
	$::ComponentData
		$::GameObjectData
			$::GameDataContainer
				$::DataContainer
			IsEventConnectionTarget 0
			IsPropertyConnectionTarget 3
			IndexInBlueprint 65535
		Transform::LinearTransform
			right::Vec3
				x 1.0
				y 0.0
				z 0.0
			up::Vec3
				x 0.0
				y 1.0
				z 0.0
			forward::Vec3
				x 0.0
				y 0.0
				z 1.0
			trans::Vec3
				x -0.4667304754257202
				y 0.12444507330656052
				z -7.809928894042969
		Components *nullArray*
		Excluded False
	Effect FX/Vehicles/Exhaust/FX_AirPlane_Afterburner_01/9EA24ACE-7522-43DA-924E-6FF84731A518
	AutoStart False
	SnapToWaterSurface False
	EmitterParameter1 0.0
	EmitterParameter2 0.0
	EmitterParameter3 0.0
EffectComponentData 0CF07D04-4729-47E3-B5F8-EB0E1B087D08
	$::ComponentData
		$::GameObjectData
			$::GameDataContainer
				$::DataContainer
			IsEventConnectionTarget 0
			IsPropertyConnectionTarget 3
			IndexInBlueprint 65535
		Transform::LinearTransform
			right::Vec3
				x 1.0
				y 0.0
				z 0.0
			up::Vec3
				x 0.0
				y 1.0
				z 0.0
			forward::Vec3
				x 0.0
				y 0.0
				z 1.0
			trans::Vec3
				x -0.4667304754257202
				y 0.12444507330656052
				z -7.614381313323975
		Components *nullArray*
		Excluded False
	Effect FX/Vehicles/Exhaust/FX_AirPlane_JetEngine_01/E4A9CA73-4D4A-43CD-BCFE-7DFEBF70DC45
	AutoStart False
	SnapToWaterSurface False
	EmitterParameter1 0.0
	EmitterParameter2 0.0
	EmitterParameter3 0.0
EffectComponentData 89F37713-210D-4D3B-A48C-40DD89A126C5
	$::ComponentData
		$::GameObjectData
			$::GameDataContainer
				$::DataContainer
			IsEventConnectionTarget 0
			IsPropertyConnectionTarget 3
			IndexInBlueprint 65535
		Transform::LinearTransform
			right::Vec3
				x 1.0
				y 0.0
				z 0.0
			up::Vec3
				x 0.0
				y 1.0
				z 0.0
			forward::Vec3
				x 0.0
				y 0.0
				z 1.0
			trans::Vec3
				x 0.4667304754257202
				y 0.12444507330656052
				z -7.614381313323975
		Components *nullArray*
		Excluded False
	Effect FX/Vehicles/Exhaust/FX_AirPlane_JetEngine_01/E4A9CA73-4D4A-43CD-BCFE-7DFEBF70DC45
	AutoStart False
	SnapToWaterSurface False
	EmitterParameter1 0.0
	EmitterParameter2 0.0
	EmitterParameter3 0.0
EffectComponentData B6A25884-41C6-4DEA-B840-B24DEF8E3E5D
	$::ComponentData
		$::GameObjectData
			$::GameDataContainer
				$::DataContainer
			IsEventConnectionTarget 0
			IsPropertyConnectionTarget 3
			IndexInBlueprint 65535
		Transform::LinearTransform
			right::Vec3
				x 1.0
				y 0.0
				z 0.0
			up::Vec3
				x 0.0
				y 1.0
				z 0.0
			forward::Vec3
				x 0.0
				y 0.0
				z 1.0
			trans::Vec3
				x -0.05062663555145264
				y -0.7911014556884766
				z 1.6257086992263794
		Components *nullArray*
		Excluded False
	Effect FX/Ambient/LevelSpecific/SP_F18/FX_Amb_SP_F18_Carrier_SteamLauncher_Start/44AF7F4F-7F09-4A8A-A835-7BA3DDE32BFA
	AutoStart False
	SnapToWaterSurface False
	EmitterParameter1 0.0
	EmitterParameter2 0.0
	EmitterParameter3 0.0
EffectComponentData B8AFFAA8-99E4-4B92-AE22-868A6AE6BE90
	$::ComponentData
		$::GameObjectData
			$::GameDataContainer
				$::DataContainer
			IsEventConnectionTarget 0
			IsPropertyConnectionTarget 3
			IndexInBlueprint 65535
		Transform::LinearTransform
			right::Vec3
				x 1.0
				y 0.0
				z 0.0
			up::Vec3
				x 0.0
				y 1.0
				z 0.0
			forward::Vec3
				x 0.0
				y 0.0
				z 1.0
			trans::Vec3
				x -1.6440846920013428
				y 0.41308754682540894
				z -2.972661018371582
		Components *nullArray*
		Excluded False
	Effect FX/Vehicles/DamageStates/HealthHigh/Airplane/FX_HealthHigh_Airplane/568A364E-7C77-4FC0-BE81-A13B3B755698
	AutoStart False
	SnapToWaterSurface False
	EmitterParameter1 0.0
	EmitterParameter2 0.0
	EmitterParameter3 0.0
EffectComponentData 9B2B41B2-9757-4F8B-A9BC-5E697A2156EA
	$::ComponentData
		$::GameObjectData
			$::GameDataContainer
				$::DataContainer
			IsEventConnectionTarget 0
			IsPropertyConnectionTarget 2
			IndexInBlueprint 65535
		Transform::LinearTransform
			right::Vec3
				x 1.0
				y 0.0
				z 0.0
			up::Vec3
				x 0.0
				y 1.0
				z 0.0
			forward::Vec3
				x 0.0
				y 0.0
				z 1.0
			trans::Vec3
				x 0.0
				y 0.6000000238418579
				z -5.0
		Components *nullArray*
		Excluded False
	Effect FX/Vehicles/DamageStates/HealthCritical/Airplane/FX_HealthCritical_Airplane/A929C058-20F8-43A2-8C52-935D4AA26A9A
	AutoStart False
	SnapToWaterSurface False
	EmitterParameter1 0.0
	EmitterParameter2 0.0
	EmitterParameter3 0.0
EffectComponentData 3A8D4394-280F-4182-8CBF-8C23B584D496
	$::ComponentData
		$::GameObjectData
			$::GameDataContainer
				$::DataContainer
			IsEventConnectionTarget 0
			IsPropertyConnectionTarget 3
			IndexInBlueprint 65535
		Transform::LinearTransform
			right::Vec3
				x -1.0
				y 0.0
				z 8.742277657347586e-08
			up::Vec3
				x -1.3799943977382304e-31
				y 0.9999999403953552
				z -1.57852960400897e-24
			forward::Vec3
				x -8.74227694680485e-08
				y -1.57852960400897e-24
				z -0.9999999403953552
			trans::Vec3
				x -6.4852294921875
				y 0.271074116230011
				z -3.2825262546539307
		Components *nullArray*
		Excluded False
	Effect FX/Vehicles/Misc/FX_Air_Contrail_01/3EEB2255-CF1F-E9FC-3046-71E757E36006
	AutoStart False
	SnapToWaterSurface False
	EmitterParameter1 0.0
	EmitterParameter2 0.0
	EmitterParameter3 0.0
EffectComponentData BFF62CAB-E42E-4EE9-9213-E7CBD7955BBB
	$::ComponentData
		$::GameObjectData
			$::GameDataContainer
				$::DataContainer
			IsEventConnectionTarget 0
			IsPropertyConnectionTarget 3
			IndexInBlueprint 65535
		Transform::LinearTransform
			right::Vec3
				x 1.0
				y -8.742277657347586e-08
				z 8.742277657347586e-08
			up::Vec3
				x -8.742277657347586e-08
				y -1.0
				z -1.57852960400897e-24
			forward::Vec3
				x 8.742277657347586e-08
				y -7.64274186065882e-15
				z -1.0
			trans::Vec3
				x 6.4852294921875
				y 0.271074116230011
				z -3.2825262546539307
		Components *nullArray*
		Excluded False
	Effect FX/Vehicles/Misc/FX_Air_Contrail_01/3EEB2255-CF1F-E9FC-3046-71E757E36006
	AutoStart False
	SnapToWaterSurface False
	EmitterParameter1 0.0
	EmitterParameter2 0.0
	EmitterParameter3 0.0
EffectComponentData C4DAF968-085D-4659-904A-C292AB0C93BD
	$::ComponentData
		$::GameObjectData
			$::GameDataContainer
				$::DataContainer
			IsEventConnectionTarget 0
			IsPropertyConnectionTarget 3
			IndexInBlueprint 65535
		Transform::LinearTransform
			right::Vec3
				x -0.5
				y 0.8660253882408142
				z 1.640661459800952e-17
			up::Vec3
				x -0.8660253882408142
				y -0.5
				z 6.123031769111886e-17
			forward::Vec3
				x 6.123031769111886e-17
				y 1.640661459800952e-17
				z 1.0
			trans::Vec3
				x -0.8833898305892944
				y 0.23539851605892181
				z -3.8767669200897217
		Components *nullArray*
		Excluded False
	Effect FX/Vehicles/Misc/FX_FlareCounterMeasure/46463B28-0526-CB9A-E3FE-D797DD9FE631
	AutoStart False
	SnapToWaterSurface False
	EmitterParameter1 0.0
	EmitterParameter2 0.0
	EmitterParameter3 0.0
EffectComponentData 32BB4441-C260-486D-A4E8-BB23586AF6F6
	$::ComponentData
		$::GameObjectData
			$::GameDataContainer
				$::DataContainer
			IsEventConnectionTarget 0
			IsPropertyConnectionTarget 3
			IndexInBlueprint 65535
		Transform::LinearTransform
			right::Vec3
				x -0.5
				y -0.8660253882408142
				z 2.285146660926333e-16
			up::Vec3
				x 0.8660253882408142
				y -0.5
				z 6.123031769111886e-17
			forward::Vec3
				x 6.123031769111886e-17
				y 2.285146660926333e-16
				z 1.0
			trans::Vec3
				x 0.8833898305892944
				y 0.23539851605892181
				z -3.8767669200897217
		Components *nullArray*
		Excluded False
	Effect FX/Vehicles/Misc/FX_FlareCounterMeasure/46463B28-0526-CB9A-E3FE-D797DD9FE631
	AutoStart False
	SnapToWaterSurface False
	EmitterParameter1 0.0
	EmitterParameter2 0.0
	EmitterParameter3 0.0
EngineComponentData CFAC9700-8A0C-4E5E-8CBB-03AC5C243D2D
	$::ComponentData
		$::GameObjectData
			$::GameDataContainer
				$::DataContainer
			IsEventConnectionTarget 3
			IsPropertyConnectionTarget 3
			IndexInBlueprint 65535
		Transform::LinearTransform
			right::Vec3
				x 1.0
				y 0.0
				z 0.0
			up::Vec3
				x 0.0
				y 1.0
				z 0.0
			forward::Vec3
				x 0.0
				y 0.0
				z 1.0
			trans::Vec3
				x 0.0
				y 0.0
				z 0.0
		Components *nullArray*
		Excluded False
	Config 2E156CC3-0BA4-4A7D-8D66-3AD79A163B21
	SoundEffect Sound/Levels/SP_Jet/SFX/SP_Jet_SFX_F18_Wingman/0E7F035C-44AB-45BB-BD9B-CB91E66E7021
	SurfaceSoundEffect *nullGuid*
	UseFirstPersonSounds False
	OutputIsEngineInWater False
EntityVoiceOverInfo 64207561-E8E6-4058-B81A-31DBB3996082
	$::DataContainer
	VoiceOverType Sound/VO/VO_System/E23D6FD9-AED0-437E-98AB-435761060519
	Labels::array
		member(0) Sound/VO/VO_System/BC53BEF7-F16E-493B-B295-755E9D590B75
FlapComponentData 650C2273-C1E4-467B-81A4-E6C010822947
	$::PartComponentData
		$::ComponentData
			$::GameObjectData
				$::GameDataContainer
					$::DataContainer
				IsEventConnectionTarget 3
				IsPropertyConnectionTarget 3
				IndexInBlueprint 65535
			Transform::LinearTransform
				right::Vec3
					x 0.9897638559341431
					y -0.03405412659049034
					z -0.13859228789806366
				up::Vec3
					x 0.03489949554204941
					y 0.9993841052055359
					z 0.0036734160967171192
				forward::Vec3
					x 0.13838182389736176
					y -0.008472614921629429
					z 0.9903427362442017
				trans::Vec3
					x -0.6652848124504089
					y 0.13707366585731506
					z -1.4759089946746826
			Components::array
				member(0) 3D3BA8E5-9AF8-4D54-B472-15564A64F80C
			Excluded False
		HealthStates *nullArray*
		PartLinks *nullArray*
		IsSupported False
		IsFragile False
		IsNetworkable True
		IsWindow False
		AnimatePhysics False
	RotationAxis RALeft
	RotationScale 1.0
FlapComponentData 2AC40318-39B1-4B2D-88F2-B1247CEBD80F
	$::PartComponentData
		$::ComponentData
			$::GameObjectData
				$::GameDataContainer
					$::DataContainer
				IsEventConnectionTarget 3
				IsPropertyConnectionTarget 3
				IndexInBlueprint 65535
			Transform::LinearTransform
				right::Vec3
					x -0.9896210432052612
					y -0.04976023733615875
					z -0.1348128765821457
				up::Vec3
					x 0.049940209835767746
					y -0.9987502098083496
					z 0.0020483601838350296
				forward::Vec3
					x -0.13474635779857635
					y -0.004705458413809538
					z 0.9908692240715027
				trans::Vec3
					x 0.6652851104736328
					y 0.1370738297700882
					z -1.4759089946746826
			Components::array
				member(0) E7FE0F82-8E70-4774-86E1-791A277B376F
			Excluded False
		HealthStates *nullArray*
		PartLinks *nullArray*
		IsSupported False
		IsFragile False
		IsNetworkable True
		IsWindow False
		AnimatePhysics False
	RotationAxis RALeft
	RotationScale 1.0
FlapComponentData 09873450-BB7B-41B2-ABAC-4218B7B8486E
	$::PartComponentData
		$::ComponentData
			$::GameObjectData
				$::GameDataContainer
					$::DataContainer
				IsEventConnectionTarget 3
				IsPropertyConnectionTarget 3
				IndexInBlueprint 65535
			Transform::LinearTransform
				right::Vec3
					x 3.4681234629735293e-17
					y 1.0
					z 1.0768809623199201e-17
				up::Vec3
					x -0.8241261839866638
					y 3.4681234629735293e-17
					z -0.56640625
				forward::Vec3
					x -0.56640625
					y 1.0768809623199201e-17
					z 0.8241261839866638
				trans::Vec3
					x -2.338949680328369
					y 1.432146366558626e-16
					z 0.02171945571899414
			Components::array
				member(0) E241F6CD-0E2E-4E86-8AF7-36FC901CC44C
			Excluded False
		HealthStates *nullArray*
		PartLinks *nullArray*
		IsSupported False
		IsFragile False
		IsNetworkable True
		IsWindow False
		AnimatePhysics False
	RotationAxis RAUp
	RotationScale 1.0
FlapComponentData 11DD25C2-F1E9-4D2A-92FD-8D972CB40502
	$::PartComponentData