Partition 925CFC85-730C-4BF6-1F49-F1F124B7758A
AIWeaponData 0A3834B7-5E5E-5F33-C4B5-ABBE39476C3F
    $::GameAIWeaponData
        $::Asset
            $::DataContainer
            Name *nullString*
    Strengths::Strengths
        Infantry 0.0
        LightArmour 0.0
        HeavyArmour 0.0
        Helicopter 0.0
    Indirect False
    IsAiAllowed True
    UseFromCover False
    DisableWeaponSway False
    MinRange 0.0
    MaxRange 0.0
    OptimalRangePercentage 0.0
    ReloadBehavior RbInCover
    MinExtraReloadTime 0.0
    MaxExtraReloadTime 0.0
    AllowedAgainstImmortals True
    CanSuppress True
    CanAltAttack False
    IsStandStill False
    IsMelee False
    IsBlindFireAllowed True
    WaitTimeBeforeFire 0.0
    BurstLimitNear::BurstLimit
        Min 0
        Max 0
    BurstLimitFar::BurstLimit
        Min 0
        Max 0
    MinBurstCoolDownTime 1.0
    MaxBurstCoolDownTime 2.0
    LostTargetBurstCoolDownModifier 2.0
    AimTransitionFireDelay 0.34999999404
    AimAngularVelocity 0.0
    AngleToTargetSnap 0.0
    AimWhileReloading True
    UseZoom False
    AimOrigin AoDefault
    GravityModifier 1.0
    AimHighIndirectPath False
    MinimumAccuracyBeforeFiring 7.0
    AdditionalMinimumAccuracyAtMinRange 0.0
    SweepFirstAttack False
    SweepType SstTargetLost
    SweepDistance 0.0
    SweepTime 0.5
    InnerInaccurateDistance 5.0
    OuterInaccurateDistance 10.0
    InaccuracyFollowsTarget True
    UseInaccuracyAtCloseRange False
    StartAccuracyPercentage 0.5
    FinalAccuracyPercentage 0.5
AeroDynamicPhysicsData 96AADAAF-4826-A9D9-3F01-3DA58D78D0CC
    $::DataContainer
    BodyDrag::Vec3
        x 0.035000000149
        y 0.0799999982119
        z 0.00419999985024
    BodyDragOffsetYZ::Vec3
        x 0.0
        y 0.0
        z -0.20000000298
    BodyDragOffsetXZ::Vec3
        x 0.0
        y 0.0
        z 0.0
    BodyDragOffsetXY::Vec3
        x 0.0
        y 0.0
        z 0.0
AlternateCameraViewData F41EA72E-6C8F-1943-A703-77DBAC1ECFDF
    $::DataContainer
    FieldOfView 55.0
    AllowFieldOfViewScaling False
    FovTransitionTime 0.10000000149
    WorldSpaceLockEfficiency 0.0
    Mesh vehicles/common/cockpits/helmethud_Mesh/7CBF4F19-4C3A-47DE-B4C6-1006186C86F9
    MaskMeshBlueprint *nullGuid*
    LockMeshToRenderView True
    MeshOffset::Vec3
        x 0.0
        y 0.0
        z 0.140000000596
    Hud::HudData
        CrosshairScaleMin 0.0
        CrosshairScaleMax 5.0
        CrosshairOpacityMin 1.0
        CrosshairOpacityMax 0.10000000149
        CrosshairOpacityModifier 1.0
        CrosshairTypeId *nullString*
        WeaponClass *nullString*
        ShowMinimap True
        HideAmmo False
        LowAmmoWarning 0.300000011921
        ReloadPrompt 0.300000011921
        InfiniteAmmo False
        HideCrosshairWhenAimOnFriend True
        UseRenderTarget False
        RenderTargetIndex 0
        HudPropertyList B34420A6-B11D-5603-1DAE-FDFEFCCDE718
        UseRangeMeter True
        UseAimWarning True
        UsePredictedSight True
        UseWeaponOrientations True
        UseVelocityVectorMarker False
        UseLockingController True
        UseThrust True
        UseGForce True
        UseSkidSlip True
        UseClimbRate True
        SeaLevelAltFreq 15.0
        CameraShakeModifier 1.0
    FadeToBlack False
    FadeInDuration 0.0
    FadeOutDuration 0.0
    BlackDuration 0.0
    InputSuppression::InputSuppressionData
        SuppressVehicleInput::array
            member(0)::ActionSuppressor
                ActionToSuppress EIAPitch
                SuppressingValue 0.0
            member(1)::ActionSuppressor
                ActionToSuppress EIARoll
                SuppressingValue 0.0
    ToggleViewChange False
    UseProfileOptionForToggleViewChange False
    FLIREnabled False
    ScreenExposureAreaScale 1.0
AlternateCameraViewData E0749251-91C9-0FA0-7802-EFA211220742
    $::DataContainer
    FieldOfView 15.0
    AllowFieldOfViewScaling False
    FovTransitionTime 0.0
    WorldSpaceLockEfficiency 0.0
    Mesh vehicles/common/cockpits/hudholder_Mesh/99330D0D-ECC1-47A3-911D-89DCE40EAC0C
    MaskMeshBlueprint *nullGuid*
    LockMeshToRenderView True
    MeshOffset::Vec3
        x 0.0
        y 0.0
        z 1.42299997807
    Hud::HudData
        CrosshairScaleMin 0.0
        CrosshairScaleMax 5.0
        CrosshairOpacityMin 1.0
        CrosshairOpacityMax 0.10000000149
        CrosshairOpacityModifier 1.0
        CrosshairTypeId *nullString*
        WeaponClass *nullString*
        ShowMinimap True
        HideAmmo False
        LowAmmoWarning 0.300000011921
        ReloadPrompt 0.300000011921
        InfiniteAmmo False
        HideCrosshairWhenAimOnFriend True
        UseRenderTarget False
        RenderTargetIndex 0
        HudPropertyList C225D06C-6033-0773-EB2E-36C1C8C98922
        UseRangeMeter True
        UseAimWarning True
        UsePredictedSight True
        UseWeaponOrientations True
        UseVelocityVectorMarker True
        UseLockingController True
        UseThrust True
        UseGForce True
        UseSkidSlip True
        UseClimbRate True
        SeaLevelAltFreq 15.0
        CameraShakeModifier 1.0
    FadeToBlack True
    FadeInDuration 0.0
    FadeOutDuration 0.0
    BlackDuration 0.0
    InputSuppression::InputSuppressionData
        SuppressVehicleInput::array
            member(0)::ActionSuppressor
                ActionToSuppress EIARoll
                SuppressingValue 0.125
            member(1)::ActionSuppressor
                ActionToSuppress EIAPitch
                SuppressingValue 0.125
    ToggleViewChange True
    UseProfileOptionForToggleViewChange False
    FLIREnabled False
    ScreenExposureAreaScale 1.0
AndEntityData 142E769F-E527-4544-837B-8D209CF7D28A
    $::EntityData
        $::GameObjectData
            $::GameDataContainer
                $::DataContainer
            IsEventConnectionTarget 3
            IsPropertyConnectionTarget 2
            IndexInBlueprint 16
    Realm Realm_Client
    In1 False
    In2 False
AntEnumeration 1657579C-3500-AF76-0C00-B9E973C0A2D4
    $::DataContainer
    AntAsset::AntRef
        AssetId 357078069
    Value 48
AntEnumeration 6736EC98-B826-FB7E-6538-F47370D704EC
    $::DataContainer
    AntAsset::AntRef
        AssetId 357078069
    Value 49
BangerSpawnImpulseParams A511DFE0-D164-6585-942D-3F66320B8FF0
    $::DataContainer
    MinHorizontalAngle -90.0
    MaxHorizontalAngle 90.0
    MinVerticalAngle 45.0
    MaxVerticalAngle 85.0
    MinStrength 15000.0
    MaxStrength 15000.0
    WaterStrengthModifier 0.00700000021607
    LinearDamping 0.0
    AngularDamping 0.0500000007451
BoolEntityData D9D73C08-BA80-4F58-D3D7-CF0AC8F87C37
    $::EntityData
        $::GameObjectData
            $::GameDataContainer
                $::DataContainer
            IsEventConnectionTarget 1
            IsPropertyConnectionTarget 3
            IndexInBlueprint 5
    Realm Realm_Server
    DefaultValue False
BoolEntityData 66B643E5-E7CE-42ED-9D82-AA443A3C1455
    $::EntityData
        $::GameObjectData
            $::GameDataContainer
                $::DataContainer
            IsEventConnectionTarget 2
            IsPropertyConnectionTarget 3
            IndexInBlueprint 14
    Realm Realm_ClientAndServer
    DefaultValue True
BoolEntityData 51D5429B-AB05-4438-97CC-E4D4F28A71A4
    $::EntityData
        $::GameObjectData
            $::GameDataContainer
                $::DataContainer
            IsEventConnectionTarget 0
            IsPropertyConnectionTarget 3
            IndexInBlueprint 15
    Realm Realm_Client
    DefaultValue True
BoolToEventEntityData B53F5BCE-9736-4BFD-8B81-F5573ED93FD5
    $::EntityData
        $::GameObjectData
            $::GameDataContainer
                $::DataContainer
            IsEventConnectionTarget 3
            IsPropertyConnectionTarget 0
            IndexInBlueprint 18
    Realm Realm_Client
    Value False
    InitalEvent False
CameraComponentData F6D7DCE9-6AE1-09F0-3D22-AEA84C57267D
    $::ComponentData
        $::GameObjectData
            $::GameDataContainer
                $::DataContainer
            IsEventConnectionTarget 3
            IsPropertyConnectionTarget 3
            IndexInBlueprint 65535
        Transform::LinearTransform
            right::Vec3
                x 1.0
                y 0.0
                z 0.0
            up::Vec3
                x 0.0
                y 1.0
                z 0.0
            forward::Vec3
                x 0.0
                y 0.0
                z 1.0
            trans::Vec3
                x 0.0
                y 0.999887287617
                z -0.099086523056
        Components *nullArray*
        Excluded False
    Camera 4FB6AB21-3FA0-CF9D-8196-534421E0606C
    FieldOfView 45.0
    ForceFieldOfView -1.0
    EnableCameraMesh True
    AlternateView *nullGuid*
    RegularView::RegularCameraViewData
        FLIREnabled False
        InputSuppression::InputSuppressionData
            SuppressVehicleInput::array
                member(0)::ActionSuppressor
                    ActionToSuppress EIAPitch
                    SuppressingValue 0.0
                member(1)::ActionSuppressor
                    ActionToSuppress EIARoll
                    SuppressingValue 0.0
                member(2)::ActionSuppressor
                    ActionToSuppress EIAFire
                    SuppressingValue 0.0
        FieldOfView 60.0
        AllowFieldOfViewScaling False
        Mesh *nullGuid*
        MaskMeshBlueprint *nullGuid*
        LockMeshToRenderView False
        MeshOffset::Vec3
            x 0.0
            y 0.0
            z 0.0
        ScreenExposureAreaScale 1.0
    AlternateViewEnabled True
    FreezeHeight 0.0
    IsFirstPerson True
    SoldierAnimatedCamera::SoldierAnimatedCameraData
        EnableFeature False
        CameraTransitionTime 0.5
    ReceiveImpulsesAsThirdPerson False
    UseCameraTransition False
    CameraTransitionPos::Vec3
        x 0.0
        y 0.0
        z 0.0
    CameraTransitionTime 1.0
    MeshParentComponentNumber 0
    StanceData::StanceCameraData
        ValidStances *nullArray*
        DefaultCameraForStances *nullArray*
    CameraSoundData *nullGuid*
    IgnoreOwnerOrientation False
CameraComponentData 76B9CE48-412E-F630-49EB-03D73A1FAED5
    $::ComponentData
        $::GameObjectData
            $::GameDataContainer
                $::DataContainer
            IsEventConnectionTarget 3
            IsPropertyConnectionTarget 3
            IndexInBlueprint 65535
        Transform::LinearTransform
            right::Vec3
                x 1.0
                y 0.0
                z 0.0
            up::Vec3
                x 0.0
                y 1.0
                z 0.0
            forward::Vec3
                x 0.0
                y 0.0
                z 1.0
            trans::Vec3
                x 0.0
                y -1.90042328835
                z -1.74615991116
        Components *nullArray*
        Excluded False
    Camera 7EFE54EE-2DFC-469B-5457-006B434E06A2
    FieldOfView 45.0
    ForceFieldOfView -1.0
    EnableCameraMesh True
    AlternateView *nullGuid*
    RegularView::RegularCameraViewData
        FLIREnabled False
        InputSuppression::InputSuppressionData
            SuppressVehicleInput *nullArray*
        FieldOfView 60.0
        AllowFieldOfViewScaling False
        Mesh *nullGuid*
        MaskMeshBlueprint *nullGuid*
        LockMeshToRenderView False
        MeshOffset::Vec3
            x 0.0
            y 0.0
            z 0.0
        ScreenExposureAreaScale 1.0
    AlternateViewEnabled True
    FreezeHeight 0.0
    IsFirstPerson False
    SoldierAnimatedCamera::SoldierAnimatedCameraData
        EnableFeature False
        CameraTransitionTime 0.5
    ReceiveImpulsesAsThirdPerson False
    UseCameraTransition False
    CameraTransitionPos::Vec3
        x 0.0
        y 0.0
        z 0.0
    CameraTransitionTime 2.0
    MeshParentComponentNumber 0
    StanceData::StanceCameraData
        ValidStances *nullArray*
        DefaultCameraForStances *nullArray*
    CameraSoundData *nullGuid*
    IgnoreOwnerOrientation False
CameraComponentData A674ACBC-E3E5-3ECB-96B5-5CAF8A2FCDFE
    $::ComponentData
        $::GameObjectData
            $::GameDataContainer
                $::DataContainer
            IsEventConnectionTarget 3
            IsPropertyConnectionTarget 3
            IndexInBlueprint 65535
        Transform::LinearTransform
            right::Vec3
                x 1.0
                y 0.0
                z 0.0
            up::Vec3
                x 0.0
                y 1.0
                z 0.0
            forward::Vec3
                x 0.0
                y 0.0
                z 1.0
            trans::Vec3
                x 0.0
                y 1.01049590111
                z 0.0563720464706
        Components *nullArray*
        Excluded False
    Camera 666E0BC2-B8BE-C0D0-2029-86604895CD83
    FieldOfView 45.0
    ForceFieldOfView -1.0
    EnableCameraMesh True
    AlternateView F41EA72E-6C8F-1943-A703-77DBAC1ECFDF
    RegularView::RegularCameraViewData
        FLIREnabled False
        InputSuppression::InputSuppressionData
            SuppressVehicleInput *nullArray*
        FieldOfView 55.0
        AllowFieldOfViewScaling False
        Mesh vehicles/common/cockpits/helmethud_Mesh/7CBF4F19-4C3A-47DE-B4C6-1006186C86F9
        MaskMeshBlueprint *nullGuid*
        LockMeshToRenderView True
        MeshOffset::Vec3
            x 0.0
            y 0.0
            z 0.140000000596
        ScreenExposureAreaScale 1.0
    AlternateViewEnabled True
    FreezeHeight 0.0
    IsFirstPerson True
    SoldierAnimatedCamera::SoldierAnimatedCameraData
        EnableFeature False
        CameraTransitionTime 0.5
    ReceiveImpulsesAsThirdPerson False
    UseCameraTransition False
    CameraTransitionPos::Vec3
        x 0.0
        y 0.0
        z 0.0
    CameraTransitionTime 2.0
    MeshParentComponentNumber 0
    StanceData::StanceCameraData
        ValidStances::array
            member(0) 0
            member(1) 1
        DefaultCameraForStances::array
            member(0) 0
            member(1) 1
    CameraSoundData *nullGuid*
    IgnoreOwnerOrientation False
CameraComponentData 814F503C-16B5-4F88-BAE6-6892B61D026E
    $::ComponentData
        $::GameObjectData
            $::GameDataContainer
                $::DataContainer
            IsEventConnectionTarget 3
            IsPropertyConnectionTarget 3
            IndexInBlueprint 65535
        Transform::LinearTransform
            right::Vec3
                x 1.0
                y 0.0
                z 0.0
            up::Vec3
                x 0.0
                y 1.0
                z 0.0
            forward::Vec3
                x 0.0
                y 0.0
                z 1.0
            trans::Vec3
                x 0.0
                y 0.0
                z 0.0
        Components *nullArray*
        Excluded False
    Camera 0476E1B3-B801-0B87-8584-9670827EC88C
    FieldOfView 45.0
    ForceFieldOfView -1.0
    EnableCameraMesh True
    AlternateView E0749251-91C9-0FA0-7802-EFA211220742
    RegularView::RegularCameraViewData
        FLIREnabled False
        InputSuppression::InputSuppressionData
            SuppressVehicleInput *nullArray*
        FieldOfView 55.0
        AllowFieldOfViewScaling False
        Mesh vehicles/common/cockpits/hudholder_Mesh/99330D0D-ECC1-47A3-911D-89DCE40EAC0C
        MaskMeshBlueprint *nullGuid*
        LockMeshToRenderView True
        MeshOffset::Vec3
            x 0.0
            y 0.0
            z 0.360000014305
        ScreenExposureAreaScale 1.0
    AlternateViewEnabled True
    FreezeHeight 0.0
    IsFirstPerson True
    SoldierAnimatedCamera::SoldierAnimatedCameraData
        EnableFeature False
        CameraTransitionTime 0.5
    ReceiveImpulsesAsThirdPerson False
    UseCameraTransition False
    CameraTransitionPos::Vec3
        x 0.0
        y 0.0
        z 0.0
    CameraTransitionTime 1.0
    MeshParentComponentNumber 0
    StanceData::StanceCameraData
        ValidStances::array
            member(0) 0
            member(1) 1
        DefaultCameraForStances::array
            member(0) 0
            member(1) 1
    CameraSoundData B51AA954-0F06-957A-D878-0A5B6366DD90
    IgnoreOwnerOrientation False
CameraComponentSoundData B51AA954-0F06-957A-D878-0A5B6366DD90
    $::DataContainer
    SwitchToAlternateViewSound Sound/Vehicles/StancesAndWeaponViews/into_CITV_US/B5202524-1D38-052F-7D1E-709579149348
    SwitchToNormalViewSound Sound/Vehicles/StancesAndWeaponViews/into_CITV_US/B5202524-1D38-052F-7D1E-709579149348
ChaseCameraData 7EFE54EE-2DFC-469B-5457-006B434E06A2
    $::TargetCameraData
        $::CameraData
            $::GameObjectData
                $::GameDataContainer
                    $::DataContainer
                IsEventConnectionTarget 3
                IsPropertyConnectionTarget 3
                IndexInBlueprint 65535
            OcclusionRayOffset::Vec3
                x 0.0
                y 0.0
                z 0.0
            PreFadeTime 0.0
            FadeTime 0.0
            FadeWaitTime 0.0
            StayFadedWhileStreaming False
            ViewFx *nullGuid*
            NearPlane -1.0
            ShadowViewDistanceScale 1.0
            SoundOcclusion 0.0
            SoundListenerRadius 0.5
            ShakeFactor 1.0
        Hud::HudData
            CrosshairScaleMin 0.0
            CrosshairScaleMax 5.0
            CrosshairOpacityMin 1.0
            CrosshairOpacityMax 0.10000000149
            CrosshairOpacityModifier 1.0
            CrosshairTypeId *nullString*
            WeaponClass *nullString*
            ShowMinimap True
            HideAmmo False
            LowAmmoWarning 0.300000011921
            ReloadPrompt 0.300000011921
            InfiniteAmmo False
            HideCrosshairWhenAimOnFriend True
            UseRenderTarget False
            RenderTargetIndex 0
            HudPropertyList *nullGuid*
            UseRangeMeter False
            UseAimWarning False
            UsePredictedSight False
            UseWeaponOrientations False
            UseVelocityVectorMarker False
            UseLockingController False
            UseThrust False
            UseGForce False
            UseSkidSlip False
            UseClimbRate False
            SeaLevelAltFreq 0.0
            CameraShakeModifier 1.0
        UIParts *nullArray*
    TargetOffset::Vec3
        x 2.79999995232
        y 3.0
        z -7.0
    TargetRotationOffset 0.0
    KeepTargetPitch True
    ToWantedPositionScale::Vec3
        x 100.0
        y 200.0
        z 100.0
    MaxViewRotationAngleDeg 0.0
    WantedAngleDeg 5.0
    WantedDistance 10.0
    MaxDistance 10.0
    SnapDistance 20.0
    ForceFieldRadius 2.0
    CollisionRadius 0.10000000149
    ForceFieldForceScale 80.0
    AwayFromTargetForceScale 100.0
    VelocityDrag 25.0
    MaxVelocity 100.0
    PillMinimumCollisionRadius 0.5
    PillMaximumCollisionRadius 1.5
    PillMinimumCollisionLength 0.300000011921
    PillExpandSizeSpeedAcceleration 50.0
    LookDistanceScale 0.0
    LookDistanceInFrontOfTarget 80.0
    ShouldRollWithTarget True
    InheritTargetVelocity True
    UpdateRate 200
    HasCollision True
ChassisComponentData 1CE40640-6200-938D-6DC5-01D093127B93
    $::PartComponentData
        $::ComponentData
            $::GameObjectData
                $::GameDataContainer
                    $::DataContainer
                IsEventConnectionTarget 3
                IsPropertyConnectionTarget 3
                IndexInBlueprint 1
            Transform::LinearTransform
                right::Vec3
                    x 1.0
                    y 0.0
                    z 0.0
                up::Vec3
                    x 0.0
                    y 1.0
                    z 0.0
                forward::Vec3
                    x 0.0
                    y 0.0
                    z 1.0
                trans::Vec3
                    x 0.0
                    y 0.0
                    z 0.0
            Components::array
                member(0) 2ACCC1E2-8384-C306-80FF-3E8A6354C1D2
                member(1) 385354D5-8A26-9BB0-2A30-520783FF730F
                member(2) 391C450A-D360-44A7-9219-2366E69A2F81
                member(3) EC9A5CA5-1571-3A23-1BB3-6555B83DE395
                member(4) 8A999CDA-23D0-9CE3-4064-AFFCA2BCB3E0
                member(5) A9C9C301-935E-7031-912B-4E2349273B33
                member(6) FFB6A902-A38F-07E1-3E96-B87FA8529B12
                member(7) EE0C622E-A8A1-582A-5C71-C0B3F6D769C5
                member(8) EBD1C9E4-9566-FED4-495C-11A9CF5C2322
                member(9) 05E8BB5A-153C-5F74-9210-B877680273EF
                member(10) 921268A3-B803-C03E-FB7E-E3C672D933E2
                member(11) B363759B-C984-6EFE-22BA-E0BB9D980576
                member(12) FE19BE8B-6805-3761-F478-A46DB7C0FBA9
                member(13) 835D874C-AFAB-C453-6BCB-7C3F73A63AB4
                member(14) 06E3ECE7-2A4D-E7EE-7BBA-67366A81F6EC
                member(15) 37EEC0F7-9862-5B21-DCF5-974117DDB4AB
                member(16) 65136B02-A707-55B8-5015-0F4747327C04
                member(17) 7FDDEEFC-749A-67F7-8852-4B7B30FBECB2
                member(18) C5969E43-81DD-2737-05AD-61726B82B036
                member(19) 9F6BD405-5DB5-BD12-98B6-685D04CF563D
                member(20) 390E1021-CBFB-A343-E1B5-134DD2206A32
            Excluded False
        HealthStates::array
            member(0) 663ED566-E415-F79A-E1D6-490267A8A8DF
            member(1) 232F3BC3-46E4-2966-A0BD-9DC8D89345D1
        PartLinks *nullArray*
        IsSupported False
        IsFragile False
        IsNetworkable True
        IsWindow False
        AnimatePhysics False
    VehicleConfig 32629E85-88FF-A590-0178-3CE193C0049C
    GearboxConfig 944D90AD-D16E-C8EB-9C8F-6565F27C9F13
    AlwaysFullThrottle False
    WaterEffects *nullArray*
    WaterStreakEffects *nullArray*
    TriggerGroundEffectImpulse 0.0
    LandingGearLogic *nullGuid*
    ForceLandingGearsRetract False
    AllowNegativeThrottle True
ChildBarrelComponentData 82AEE509-CC19-8307-1037-C13366E8B7E3
    $::ChildComponentData
        $::PartComponentData
            $::ComponentData
                $::GameObjectData
                    $::GameDataContainer
                        $::DataContainer
                    IsEventConnectionTarget 3
                    IsPropertyConnectionTarget 3
                    IndexInBlueprint 65535
                Transform::LinearTransform
                    right::Vec3
                        x 1.0
                        y 0.0
                        z 0.0
                    up::Vec3
                        x 0.0
                        y 1.0
                        z 6.00718585986e-10
                    forward::Vec3
                        x 0.0
                        y -6.00718585986e-10
                        z 1.0
                    trans::Vec3
                        x -1.40693485737
                        y 0.0370020866394
                        z 0.858074128628
                Components *nullArray*
                Excluded False
            HealthStates *nullArray*
            PartLinks *nullArray*
            IsSupported False
            IsFragile False
            IsNetworkable True
            IsWindow False
            AnimatePhysics False
        SoundEffect *nullGuid*
        MovingBody *nullGuid*
        HealthZone::VehicleHealthZoneData
            MaxHealth 0.0
            MaxShieldHealth 0.0
            UseDamageAngleCalculation False
            MinDamageAngle 0.0
            DamageAngleMultiplier 1.0
        SoundEffectStartRpm 0.10000000149
        SoundEffectStopRpm 0.10000000149
        AlignmentSettings *nullGuid*
        WorldSpacePositionLock False
        EnableAlignToCamera False
        AlignTransform::LinearTransform
            right::Vec3
                x 1.0
                y 0.0
                z 0.0
            up::Vec3
                x 0.0
                y 1.0
                z 0.0
            forward::Vec3
                x 0.0
                y 0.0
                z 1.0
            trans::Vec3
                x 0.0
                y 0.0
                z 0.0
ChildBarrelComponentData D085B95A-A091-8758-62B9-C36B2F571BDB
    $::ChildComponentData
        $::PartComponentData
            $::ComponentData
                $::GameObjectData
                    $::GameDataContainer
                        $::DataContainer
                    IsEventConnectionTarget 3
                    IsPropertyConnectionTarget 3
                    IndexInBlueprint 65535
                Transform::LinearTransform
                    right::Vec3
                        x 1.0
                        y 0.0
                        z 0.0
                    up::Vec3
                        x 0.0
                        y 1.0
                        z 0.0
                    forward::Vec3
                        x 0.0
                        y 0.0
                        z 1.0
                    trans::Vec3
                        x 1.40693485737
                        y 0.0370020866394
                        z 0.858074128628
                Components *nullArray*
                Excluded False
            HealthStates *nullArray*
            PartLinks *nullArray*
            IsSupported False
            IsFragile False
            IsNetworkable True
            IsWindow False
            AnimatePhysics False
        SoundEffect *nullGuid*
        MovingBody *nullGuid*
        HealthZone::VehicleHealthZoneData
            MaxHealth 0.0
            MaxShieldHealth 0.0
            UseDamageAngleCalculation False
            MinDamageAngle 0.0
            DamageAngleMultiplier 1.0
        SoundEffectStartRpm 0.10000000149
        SoundEffectStopRpm 0.10000000149
        AlignmentSettings *nullGuid*
        WorldSpacePositionLock False
        EnableAlignToCamera False
        AlignTransform::LinearTransform
            right::Vec3
                x 1.0
                y 0.0
                z 0.0
            up::Vec3
                x 0.0
                y 1.0
                z 0.0
            forward::Vec3
                x 0.0
                y 0.0
                z 1.0
            trans::Vec3
                x 0.0
                y 0.0
                z 0.0
ChildComponentData 6BABBB4F-2DE2-0A48-5FE0-0E66C93B4926
    $::PartComponentData
        $::ComponentData
            $::GameObjectData
                $::GameDataContainer
                    $::DataContainer
                IsEventConnectionTarget 3
                IsPropertyConnectionTarget 3
                IndexInBlueprint 65535
            Transform::LinearTransform
                right::Vec3
                    x 1.0
                    y 0.0
                    z 0.0
                up::Vec3
                    x 0.0
                    y 1.0
                    z 0.0
                forward::Vec3
                    x 0.0
                    y 0.0
                    z 1.0
                trans::Vec3
                    x -0.000257737381617
                    y -1.42735683918
                    z 3.21014308929
            Components::array
                member(0) 15822E70-4E8F-AA83-2745-F65E44A0FC06
            Excluded False
        HealthStates::array
            member(0) 44F9B7E3-BD83-9894-CFBE-D505BC84425C
        PartLinks *nullArray*
        IsSupported False
        IsFragile False
        IsNetworkable True
        IsWindow False
        AnimatePhysics False
    SoundEffect *nullGuid*
    MovingBody 5E30A264-2FC6-76D7-D095-D4C572B62624
    HealthZone::VehicleHealthZoneData
        MaxHealth 0.0
        MaxShieldHealth 0.0
        UseDamageAngleCalculation False
        MinDamageAngle 0.0
        DamageAngleMultiplier 1.0
    SoundEffectStartRpm 0.10000000149
    SoundEffectStopRpm 0.10000000149
    AlignmentSettings *nullGuid*
    WorldSpacePositionLock False
    EnableAlignToCamera False
    AlignTransform::LinearTransform
        right::Vec3
            x 1.0
            y 0.0
            z 0.0
        up::Vec3
            x 0.0
            y 1.0
            z 0.0
        forward::Vec3
            x 0.0
            y 0.0
            z 1.0
        trans::Vec3
            x 0.0
            y 0.0
            z 0.0
ChildComponentData 15822E70-4E8F-AA83-2745-F65E44A0FC06
    $::PartComponentData
        $::ComponentData
            $::GameObjectData
                $::GameDataContainer
                    $::DataContainer
                IsEventConnectionTarget 3
                IsPropertyConnectionTarget 3
                IndexInBlueprint 65535
            Transform::LinearTransform
                right::Vec3
                    x 0.99999576807
                    y -0.00283468910493
                    z -0.000669152708724
                up::Vec3
                    x 0.00283361691982
                    y 0.999994695187
                    z -0.00159791461192
                forward::Vec3
                    x 0.000673678761814
                    y 0.00159601168707
                    z 0.999998509884