Partition FDE06FAE-1D63-11E0-8A6F-FC9481BB4D51
AIWeaponData 8D430BED-3901-0FAA-22B0-AFA87E418CBA
    $::GameAIWeaponData
        $::Asset
            $::DataContainer
            Name *nullString*
    Strengths::Strengths
        Infantry 0.0
        LightArmour 0.0
        HeavyArmour 0.0
        Helicopter 0.0
    Indirect False
    IsAiAllowed True
    UseFromCover False
    DisableWeaponSway False
    MinRange 0.0
    MaxRange 0.0
    OptimalRangePercentage 0.0
    ReloadBehavior RbInCover
    MinExtraReloadTime 0.0
    MaxExtraReloadTime 0.0
    AllowedAgainstImmortals True
    CanSuppress True
    CanAltAttack False
    IsStandStill False
    IsMelee False
    IsBlindFireAllowed True
    WaitTimeBeforeFire 0.0
    BurstLimitNear::BurstLimit
        Min 0
        Max 0
    BurstLimitFar::BurstLimit
        Min 0
        Max 0
    MinBurstCoolDownTime 1.0
    MaxBurstCoolDownTime 2.0
    LostTargetBurstCoolDownModifier 2.0
    AimTransitionFireDelay 0.34999999404
    AimAngularVelocity 0.0
    AngleToTargetSnap 0.0
    AimWhileReloading True
    UseZoom False
    AimOrigin AoDefault
    GravityModifier 1.0
    AimHighIndirectPath False
    MinimumAccuracyBeforeFiring 7.0
    AdditionalMinimumAccuracyAtMinRange 0.0
    SweepFirstAttack False
    SweepType SstTargetLost
    SweepDistance 0.0
    SweepTime 0.5
    InnerInaccurateDistance 5.0
    OuterInaccurateDistance 10.0
    InaccuracyFollowsTarget True
    UseInaccuracyAtCloseRange False
    StartAccuracyPercentage 0.5
    FinalAccuracyPercentage 0.5
AeroDynamicPhysicsData DCE31B3B-5671-4924-A596-D5536E9FC5B7
    $::DataContainer
    BodyDrag::Vec3
        x 0.20000000298
        y 0.25
        z 0.10000000149
    BodyDragOffsetYZ::Vec3
        x 0.0
        y 0.0
        z 0.0
    BodyDragOffsetXZ::Vec3
        x 0.0
        y 0.0
        z 0.0
    BodyDragOffsetXY::Vec3
        x 0.0
        y 0.0
        z 0.0
AlternateCameraViewData 2965A1A1-FF5A-44ED-86DC-88F7E23E652E
    $::DataContainer
    FieldOfView 30.0
    AllowFieldOfViewScaling False
    FovTransitionTime 0.0
    WorldSpaceLockEfficiency 0.0
    Mesh vehicles/common/cockpits/hudholder_Mesh/99330D0D-ECC1-47A3-911D-89DCE40EAC0C
    MaskMeshBlueprint *nullGuid*
    LockMeshToRenderView False
    MeshOffset::Vec3
        x 0.0
        y 0.0
        z 0.544000029564
    Hud::HudData
        CrosshairScaleMin 0.0
        CrosshairScaleMax 5.0
        CrosshairOpacityMin 1.0
        CrosshairOpacityMax 0.10000000149
        CrosshairOpacityModifier 1.0
        CrosshairTypeId *nullString*
        WeaponClass *nullString*
        ShowMinimap True
        HideAmmo False
        LowAmmoWarning 0.300000011921
        ReloadPrompt 0.300000011921
        InfiniteAmmo False
        HideCrosshairWhenAimOnFriend True
        UseRenderTarget False
        RenderTargetIndex 0
        HudPropertyList *nullGuid*
        UseRangeMeter False
        UseAimWarning False
        UsePredictedSight False
        UseWeaponOrientations False
        UseVelocityVectorMarker False
        UseLockingController False
        UseThrust False
        UseGForce False
        UseSkidSlip False
        UseClimbRate False
        SeaLevelAltFreq 0.0
        CameraShakeModifier 1.0
    FadeToBlack True
    FadeInDuration 0.0299999993294
    FadeOutDuration 0.10000000149
    BlackDuration 0.0299999993294
    InputSuppression::InputSuppressionData
        SuppressVehicleInput::array
            member(0)::ActionSuppressor
                ActionToSuppress EIAYaw
                SuppressingValue 0.75
            member(1)::ActionSuppressor
                ActionToSuppress EIAPitch
                SuppressingValue 0.649999976158
    ToggleViewChange True
    UseProfileOptionForToggleViewChange False
    FLIREnabled False
    ScreenExposureAreaScale 1.0
CameraComponentData CA44395B-9647-4126-B455-F580DF44BD7A
    $::ComponentData
        $::GameObjectData
            $::GameDataContainer
                $::DataContainer
            IsEventConnectionTarget 3
            IsPropertyConnectionTarget 3
            IndexInBlueprint 65535
        Transform::LinearTransform
            right::Vec3
                x 1.0
                y 0.0
                z 0.0
            up::Vec3
                x 0.0
                y 1.0
                z 0.0
            forward::Vec3
                x 0.0
                y 0.0
                z 1.0
            trans::Vec3
                x 0.0833048522472
                y -0.0439130365849
                z 0.10207182169
        Components *nullArray*
        Excluded False
    Camera 819D8E68-0DA9-475D-B130-13C175D5C2B9
    FieldOfView 45.0
    ForceFieldOfView -1.0
    EnableCameraMesh True
    AlternateView 2965A1A1-FF5A-44ED-86DC-88F7E23E652E
    RegularView::RegularCameraViewData
        FLIREnabled False
        InputSuppression::InputSuppressionData
            SuppressVehicleInput *nullArray*
        FieldOfView 55.0
        AllowFieldOfViewScaling False
        Mesh vehicles/common/cockpits/hudholder_Mesh/99330D0D-ECC1-47A3-911D-89DCE40EAC0C
        MaskMeshBlueprint *nullGuid*
        LockMeshToRenderView False
        MeshOffset::Vec3
            x 0.0
            y 0.0
            z 0.280000001192
        ScreenExposureAreaScale 1.0
    AlternateViewEnabled True
    FreezeHeight 0.0
    IsFirstPerson True
    SoldierAnimatedCamera::SoldierAnimatedCameraData
        EnableFeature False
        CameraTransitionTime 0.5
    ReceiveImpulsesAsThirdPerson False
    UseCameraTransition False
    CameraTransitionPos::Vec3
        x 0.0
        y 0.0
        z 0.0
    CameraTransitionTime 2.0
    MeshParentComponentNumber 0
    StanceData::StanceCameraData
        ValidStances *nullArray*
        DefaultCameraForStances *nullArray*
    CameraSoundData BFA9ECFF-EFE3-4316-B87B-2BEF2C941BED
    IgnoreOwnerOrientation False
CameraComponentSoundData BFA9ECFF-EFE3-4316-B87B-2BEF2C941BED
    $::DataContainer
    SwitchToAlternateViewSound Sound/Vehicles/StancesAndWeaponViews/Jet_Weapon_System_Switch_03/A04A8B7E-A2B6-4B36-A33D-D18FC7A56791
    SwitchToNormalViewSound Sound/Vehicles/StancesAndWeaponViews/Jet_Weapon_System_Switch_03/A04A8B7E-A2B6-4B36-A33D-D18FC7A56791
ChassisComponentData 53758EA5-4337-15BF-0987-2670ACE8CF01
    $::PartComponentData
        $::ComponentData
            $::GameObjectData
                $::GameDataContainer
                    $::DataContainer
                IsEventConnectionTarget 1
                IsPropertyConnectionTarget 3
                IndexInBlueprint 1
            Transform::LinearTransform
                right::Vec3
                    x 1.0
                    y 0.0
                    z 0.0
                up::Vec3
                    x 0.0
                    y 1.0
                    z 0.0
                forward::Vec3
                    x 0.0
                    y 0.0
                    z 1.0
                trans::Vec3
                    x 0.0
                    y 0.0
                    z 0.0
            Components::array
                member(0) FC38B03B-62E6-44A8-A7B0-1B87832E8158
                member(1) 782C1420-F14D-48E2-9C96-EB20475653A3
                member(2) E4B296A4-7AEB-453E-9E71-AFC8F598A625
                member(3) B68CB60C-18DE-45C0-83DD-242607D557CA
                member(4) 2B9707CB-B6F2-D08F-D76A-C8F461051765
                member(5) 2515FC58-8310-AD1C-D4D2-5A12B643E958
                member(6) 76F69BAB-C936-A559-EFCD-A66896ED1BDA
                member(7) B83FE4B1-E19E-4AF4-BF32-034B16E4F3F7
                member(8) 2E4F3F8C-6CDB-4B15-993A-A3C68684AEA2
                member(9) 97D195AE-9613-4F9D-AF02-391D9F30E5F8
                member(10) B801A740-4E93-4375-B83C-E416FE195218
                member(11) 3E60444E-7F12-4672-932B-8068616C724F
                member(12) 3A8145AD-9974-4F9A-9168-90674329A19D
                member(13) 154DA66B-26CB-4594-8D77-BE57CFDBB9B4
                member(14) 68E19EDA-DBEC-4698-9B5E-C52C61FEE7DE
                member(15) 9D3A15B9-B0D0-4665-B5AF-70F12A798C2D
                member(16) DFE06E3C-3435-42B4-BA49-475CCB7795B9
            Excluded False
        HealthStates::array
            member(0) D2DE9268-BA8B-01D0-9EB7-2A368B297E5D
        PartLinks *nullArray*
        IsSupported False
        IsFragile False
        IsNetworkable True
        IsWindow False
        AnimatePhysics False
    VehicleConfig 36091628-1B38-4B23-A865-BFE7551CC363
    GearboxConfig 443F1F6E-3065-4397-8623-14723886E5C0
    AlwaysFullThrottle False
    WaterEffects *nullArray*
    WaterStreakEffects *nullArray*
    TriggerGroundEffectImpulse 0.0
    LandingGearLogic *nullGuid*
    ForceLandingGearsRetract False
    AllowNegativeThrottle True
ChildComponentData 2B9707CB-B6F2-D08F-D76A-C8F461051765
    $::PartComponentData
        $::ComponentData
            $::GameObjectData
                $::GameDataContainer
                    $::DataContainer
                IsEventConnectionTarget 3
                IsPropertyConnectionTarget 3
                IndexInBlueprint 65535
            Transform::LinearTransform
                right::Vec3
                    x 1.0
                    y 0.0
                    z 0.0
                up::Vec3
                    x 0.0
                    y 1.0
                    z 0.0
                forward::Vec3
                    x 0.0
                    y 0.0
                    z 1.0
                trans::Vec3
                    x 0.0
                    y 0.377857983112
                    z 0.0
            Components::array
                member(0) DF6DD436-62F1-7DF3-5A5D-7852D2BEAC16
                member(1) 14462828-B9D5-2C91-8284-3A40273FB776
            Excluded False
        HealthStates::array
            member(0) 82EC3210-AD55-23C8-B7A7-0297CDBE842B
        PartLinks *nullArray*
        IsSupported False
        IsFragile False
        IsNetworkable True
        IsWindow False
        AnimatePhysics False
    SoundEffect *nullGuid*
    MovingBody 27BE6159-8AA4-4E38-9DE8-4D1F9EE31C28
    HealthZone::VehicleHealthZoneData
        MaxHealth 0.0
        MaxShieldHealth 0.0
        UseDamageAngleCalculation False
        MinDamageAngle 0.0
        DamageAngleMultiplier 1.0
    SoundEffectStartRpm 0.10000000149
    SoundEffectStopRpm 0.10000000149
    AlignmentSettings *nullGuid*
    WorldSpacePositionLock False
    EnableAlignToCamera False
    AlignTransform::LinearTransform
        right::Vec3
            x 1.0
            y 0.0
            z 0.0
        up::Vec3
            x 0.0
            y 1.0
            z 0.0
        forward::Vec3
            x 0.0
            y 0.0
            z 1.0
        trans::Vec3
            x 0.0
            y 0.0
            z 0.0
ChildRotationBodyData 27BE6159-8AA4-4E38-9DE8-4D1F9EE31C28
    $::RotationBodyData
        $::MovingBodyData
            $::DataContainer
            Mass 100.0
            Inertia 100.0
        AngularMomentumMultiplier 5.0
        AngularMomentumThreshold 0.0
        AngularMomentumDamping 0.5
        AngularMomentumDampingAcc 0.20000000298
        AngularMomentumDampingDeacc 0.20000000298
        UsePostSatisfyConstraints True
        AngularConstraintMin 0.0
        AngularConstraintMax 55.0
        RotationAxis 0
        ExtendedConstraints *nullGuid*
        UseAngularMomentumThreshold False
        UseAngularMomentumDamping True
        UseAngularConstraint True
    ForceModifier 100000.0
    ResetForceModifier 0.0
    ResetForceInputThreshold 0.0
    UseLinearInput True
    RotationInput EIAPitch
    WorldSpaceLockEfficiency 0.0
CompareFloatEntityData 21996890-8B6E-451C-9E00-918191D3D65F
    $::EntityData
        $::GameObjectData
            $::GameDataContainer
                $::DataContainer
            IsEventConnectionTarget 0
            IsPropertyConnectionTarget 0
            IndexInBlueprint 7
    Realm Realm_Client
    A 0.0
    B 0.300000011921
    TriggerOnPropertyChange True
    TriggerOnStart True
CompareFloatEntityData B85A17EA-C166-4BED-BAEE-92BDC9FE7C86
    $::EntityData
        $::GameObjectData
            $::GameDataContainer
                $::DataContainer
            IsEventConnectionTarget 0
            IsPropertyConnectionTarget 0
            IndexInBlueprint 14
    Realm Realm_Client
    A 0.0
    B 0.300000011921
    TriggerOnPropertyChange True
    TriggerOnStart True
DelayEntityData 72FB0EEE-EC2C-4CC2-970F-6397555B3A41
    $::EntityData
        $::GameObjectData
            $::GameDataContainer
                $::DataContainer
            IsEventConnectionTarget 0
            IsPropertyConnectionTarget 3
            IndexInBlueprint 6
    Delay 2.79999995232
    Realm Realm_Client
    AutoStart False
    RunOnce False
    RemoveDuplicateEvents True
DelayEntityData 94EE6D90-D79B-48C6-A214-2EFAA8A0F8E7
    $::EntityData
        $::GameObjectData
            $::GameDataContainer
                $::DataContainer
            IsEventConnectionTarget 0
            IsPropertyConnectionTarget 3
            IndexInBlueprint 9
    Delay 3.0
    Realm Realm_Client
    AutoStart False
    RunOnce False
    RemoveDuplicateEvents True
DelayEntityData 3C1332E2-AC1D-4DF4-8075-32755CEBD900
    $::EntityData
        $::GameObjectData
            $::GameDataContainer
                $::DataContainer
            IsEventConnectionTarget 0
            IsPropertyConnectionTarget 3
            IndexInBlueprint 13
    Delay 5.80000019073
    Realm Realm_Client
    AutoStart False
    RunOnce False
    RemoveDuplicateEvents True
DelayEntityData 408D5DCC-5E44-46B3-B617-A8D7337682FF
    $::EntityData
        $::GameObjectData
            $::GameDataContainer
                $::DataContainer
            IsEventConnectionTarget 0
            IsPropertyConnectionTarget 3
            IndexInBlueprint 16
    Delay 6.0
    Realm Realm_Client
    AutoStart False
    RunOnce False
    RemoveDuplicateEvents True
EffectComponentData 782C1420-F14D-48E2-9C96-EB20475653A3
    $::ComponentData
        $::GameObjectData
            $::GameDataContainer
                $::DataContainer
            IsEventConnectionTarget 0
            IsPropertyConnectionTarget 3
            IndexInBlueprint 65535
        Transform::LinearTransform
            right::Vec3
                x 1.0
                y 0.0
                z 0.0
            up::Vec3
                x 0.0
                y 1.0
                z 0.0
            forward::Vec3
                x 0.0
                y 0.0
                z 1.0
            trans::Vec3
                x 0.0
                y 0.0
                z 0.0
        Components *nullArray*
        Excluded False
    Effect Sound/Weapons/Handheld/TUGS/TUGS_Object_SFX/EBF2202A-9716-2A81-EA34-464432189CD0
    AutoStart False
    SnapToWaterSurface False
    EmitterParameter1 0.0
    EmitterParameter2 0.0
    EmitterParameter3 0.0
EngineComponentData 9D3A15B9-B0D0-4665-B5AF-70F12A798C2D
    $::ComponentData
        $::GameObjectData
            $::GameDataContainer
                $::DataContainer
            IsEventConnectionTarget 3
            IsPropertyConnectionTarget 2
            IndexInBlueprint 65535
        Transform::LinearTransform
            right::Vec3
                x 1.0
                y 0.0
                z 0.0
            up::Vec3
                x 0.0
                y 1.0
                z 0.0
            forward::Vec3
                x 0.0
                y 0.0
                z 1.0
            trans::Vec3
                x 0.0
                y 0.0
                z 0.0
        Components::array
            member(0) CA28D2C6-A357-4E92-B82E-8BD061FEF0D4
        Excluded False
    Config 90C91778-EE1E-4D03-A19E-6D8F07552052
    SoundEffect Sound/Vehicles/Air/MAV/MAV/D7CC3482-7FD8-4FC0-86E2-51D49A005E90
    SurfaceSoundEffect *nullGuid*
    UseFirstPersonSounds False
    OutputIsEngineInWater False
EngineComponentData DFE06E3C-3435-42B4-BA49-475CCB7795B9
    $::ComponentData
        $::GameObjectData
            $::GameDataContainer
                $::DataContainer
            IsEventConnectionTarget 3
            IsPropertyConnectionTarget 3
            IndexInBlueprint 65535
        Transform::LinearTransform
            right::Vec3
                x 1.0
                y 0.0
                z 0.0
            up::Vec3
                x 0.0
                y 1.0
                z 0.0
            forward::Vec3
                x 0.0
                y 0.0
                z 1.0
            trans::Vec3
                x 0.0
                y 0.0
                z 0.0
        Components *nullArray*
        Excluded False
    Config A9928785-7B09-4236-9BC4-EF9AB88C3BF5
    SoundEffect *nullGuid*
    SurfaceSoundEffect *nullGuid*
    UseFirstPersonSounds False
    OutputIsEngineInWater False
EntityVoiceOverInfo 2ADADBB6-5E1C-4AC3-8DEE-4D754480EC09
    $::DataContainer
    VoiceOverType Sound/VO/VO_System/E23D6FD9-AED0-437E-98AB-435761060519
    Labels::array
        member(0) Sound/VO/VO_System/48A662A0-DC97-4E4E-B0BF-F53C37C63FAD
EventGateEntityData 5FF93758-6962-4B5A-98B1-6ADCE2CC804B
    $::EntityData
        $::GameObjectData
            $::GameDataContainer
                $::DataContainer
            IsEventConnectionTarget 0
            IsPropertyConnectionTarget 3
            IndexInBlueprint 10
    Default True
    Realm Realm_Client
EventGateEntityData D2D9011A-FDAF-4C4F-9E16-E186C1EBB00F
    $::EntityData
        $::GameObjectData
            $::GameDataContainer
                $::DataContainer
            IsEventConnectionTarget 0
            IsPropertyConnectionTarget 3
            IndexInBlueprint 17
    Default True
    Realm Realm_Client
GearboxConfigData 443F1F6E-3065-4397-8623-14723886E5C0
    $::DataContainer
    ForwardGearRatios::array
        member(0) 6.5
        member(1) 4.0
        member(2) 3.0
        member(3) 2.5
        member(4) 2.0
    ForwardGearSpeeds::array
        member(0) 45.0
        member(1) 70.0
        member(2) 90.0
        member(3) 110.0
        member(4) 130.0
    ReverseGearRatios::array
        member(0) -5.03999996185
    ReverseGearSpeeds::array
        member(0) 50.0
    GearboxType 0
    GearboxMode 0
    GearChangeTime 0.0625
    GearDownSpeedFactor 0.800000011921
    OppositeDirGearChangeMaxSpeed 50.0
    OppositeDirGearChangeTime 0.125
    ClutchSpeedFactor 10.0
    TransmissionEfficiency 1.0
    UseAutoClutch True
    UseClassicGearBoxAutoClutch False
    UseNeutralGear True
    LimitBackwardThrottle False
    BackwardThrottleLimit 50.0
GeometryTriggerEntityData ED359027-814B-4362-B42A-DA87B33DCCF0
    $::AreaTriggerEntityData
        $::TriggerEntityData
            $::GameEntityData
                $::SpatialEntityData
                    $::EntityData
                        $::GameObjectData
                            $::GameDataContainer
                                $::DataContainer
                            IsEventConnectionTarget 3
                            IsPropertyConnectionTarget 2
                            IndexInBlueprint 20
                    Transform::LinearTransform
                        right::Vec3
                            x 1.0
                            y 0.0
                            z 0.0
                        up::Vec3
                            x 0.0
                            y 1.0
                            z 0.0
                        forward::Vec3
                            x 0.0
                            y 0.0
                            z 1.0
                        trans::Vec3
                            x 0.0
                            y 0.0
                            z 0.0
                Enabled True
                Components *nullArray*
                RuntimeComponentCount 0
            Delay 0.0
            RunOnce False
        GeometryTransform::LinearTransform
            right::Vec3
                x 1.0
                y 0.0
                z 0.0
            up::Vec3
                x 0.0
                y 1.0
                z 0.0
            forward::Vec3
                x 0.0
                y 0.0
                z 1.0
            trans::Vec3
                x 0.0
                y 0.0
                z 0.0
        Include ATPlayers
        UseCharacterEntity True
        Radius 1.0
        InsideAreaEventRepeatTime 0.40000000596
        OneInsideAreaEventPerSoldier False
        TriggerOnlyOnLeave False
        ResetOnEnable False
        TriggerOnLeaveOnDeath True
        TriggerOnLeaveOnDisable False
HavokAsset 06FA2B20-FE09-091E-3F89-AF0DD05C106B
    $::Asset
        $::DataContainer
        Name Weapons/Gadgets/MAV/MAV_Physics_0_Win32
    Scale 1.0
    ExternalAssets *nullArray*
HealthStateData D2DE9268-BA8B-01D0-9EB7-2A368B297E5D
    $::DataContainer
    Objects *nullArray*
    LoosePartPhysics *nullArray*
    SpawnedBangerBlueprint *nullGuid*
    CopyDamageToBanger True
    SpawnedBangerImpulseParams *nullGuid*
    PhysicsEnabled True
    Health 100.0
    PartIndex 1
    CanSupportOtherParts True
HealthStateData C67EF959-C773-99AE-29AA-B760FD46D3D7
    $::DataContainer
    Objects *nullArray*
    LoosePartPhysics *nullArray*
    SpawnedBangerBlueprint *nullGuid*
    CopyDamageToBanger True
    SpawnedBangerImpulseParams *nullGuid*
    PhysicsEnabled True
    Health 100.0
    PartIndex 0
    CanSupportOtherParts True
HealthStateData C8CAE8DE-67FB-0E2E-F067-53BB3542409D
    $::DataContainer
    Objects *nullArray*
    LoosePartPhysics *nullArray*
    SpawnedBangerBlueprint *nullGuid*
    CopyDamageToBanger True
    SpawnedBangerImpulseParams *nullGuid*
    PhysicsEnabled True
    Health 100.0
    PartIndex 3
    CanSupportOtherParts True
HealthStateData 82EC3210-AD55-23C8-B7A7-0297CDBE842B
    $::DataContainer
    Objects *nullArray*
    LoosePartPhysics *nullArray*
    SpawnedBangerBlueprint *nullGuid*
    CopyDamageToBanger True
    SpawnedBangerImpulseParams *nullGuid*
    PhysicsEnabled True
    Health 100.0
    PartIndex 4
    CanSupportOtherParts True
HealthStateData 5A0A9EA2-B4FC-13C3-0895-4B033F640E2E
    $::DataContainer
    Objects *nullArray*
    LoosePartPhysics *nullArray*
    SpawnedBangerBlueprint *nullGuid*
    CopyDamageToBanger True
    SpawnedBangerImpulseParams *nullGuid*
    PhysicsEnabled True
    Health 100.0
    PartIndex 5
    CanSupportOtherParts True
HealthStateData 9C88D14B-2401-62D6-1CA1-73D5AD374EE8
    $::DataContainer
    Objects *nullArray*
    LoosePartPhysics *nullArray*
    SpawnedBangerBlueprint *nullGuid*
    CopyDamageToBanger True
    SpawnedBangerImpulseParams *nullGuid*
    PhysicsEnabled True
    Health 100.0
    PartIndex 6
    CanSupportOtherParts True
HealthStateData 68EF9FCE-F427-44B5-985B-9B0A91D0BFCC
    $::DataContainer
    Objects *nullArray*
    LoosePartPhysics *nullArray*
    SpawnedBangerBlueprint *nullGuid*
    CopyDamageToBanger True
    SpawnedBangerImpulseParams *nullGuid*
    PhysicsEnabled True
    Health 0.0
    PartIndex 7
    CanSupportOtherParts False
HealthStateData 1FC13FB4-EC91-4989-A14C-7954F6AC4C73
    $::DataContainer
    Objects *nullArray*
    LoosePartPhysics *nullArray*
    SpawnedBangerBlueprint *nullGuid*
    CopyDamageToBanger True
    SpawnedBangerImpulseParams *nullGuid*
    PhysicsEnabled True
    Health 0.0
    PartIndex 8
    CanSupportOtherParts False
HealthStateData 21B04B51-D938-440E-98F9-D8A94184DFFB
    $::DataContainer
    Objects *nullArray*
    LoosePartPhysics *nullArray*
    SpawnedBangerBlueprint *nullGuid*
    CopyDamageToBanger True
    SpawnedBangerImpulseParams *nullGuid*
    PhysicsEnabled True
    Health 0.0
    PartIndex 9
    CanSupportOtherParts False
HealthStateData 76B1066E-0904-4645-893C-1810B3FB9B8F
    $::DataContainer
    Objects *nullArray*
    LoosePartPhysics *nullArray*
    SpawnedBangerBlueprint *nullGuid*
    CopyDamageToBanger True
    SpawnedBangerImpulseParams *nullGuid*
    PhysicsEnabled True
    Health 0.0
    PartIndex 10
    CanSupportOtherParts False
InputCurveData F1CEAEBA-55AC-461F-B701-15D7DED785CB
    $::DataContainer
    AffectedInputs::array
        member(0) *nullEnum*
    InputModifierCurve::array
        member(0)::Vec2
            x 0.0
            y 0.0
        member(1)::Vec2
            x 1.0
            y 0.40000000596
    HandleMultipleInputsAsSquare False
LocatorComponentData FC38B03B-62E6-44A8-A7B0-1B87832E8158
    $::ComponentData
        $::GameObjectData
            $::GameDataContainer
                $::DataContainer
            IsEventConnectionTarget 3
            IsPropertyConnectionTarget 3
            IndexInBlueprint 65535
        Transform::LinearTransform
            right::Vec3
                x 1.0
                y 0.0
                z 0.0
            up::Vec3
                x 0.0
                y 1.0
                z 0.0
            forward::Vec3
                x 0.0
                y 0.0
                z 1.0
            trans::Vec3
                x 0.0
                y 1.0
                z 0.0
        Components *nullArray*
        Excluded False
    Realm Realm_ClientAndServer
LockingControllerData 9D4B52C4-AF56-45EB-8597-E9930DFB77F2
    $::DataContainer
    ZoomLevelLock::array
        member(0)::ZoomLevelLockData
            OutlineTaggedDistance 0.0
            LockType LockOnRadar
    LockTime 0.600000023842
    ReleaseTime 0.20000000298
    ReleaseOnNewTargetTime 0.5
    SampleRate 0.0599999986589
    HoldStillThreshold 10.0
    RayLength 400.0
    LockOnVisibleTargetsOnly True
    PositionOnly False
    LockOnWorldSpacePos False
    AcceptanceAngle 3.0
    AngleConstant 1.0
    DistanceConstant 1.0
    Sensitivity 40.0
    MinimumLockTime 0.0
    LockOnEmptyVehicles True
    IgnoreHeigthLockDistance False
LockingWeaponData A0FB8635-F6A8-4319-918A-FCCCC19299A9
    $::WeaponData
        $::ToolData
            $::DataContainer
            IsAlwaysActive False
        ShowLaserPaintedVehicles False
    LockingController 9D4B52C4-AF56-45EB-8597-E9930DFB77F2
    SecondaryLockingController *nullGuid*
    IsHoming True
    IsGuided False
    IsGuidedWhenZoomed False
    FireOnlyWhenLockedOn False
    WarnLock wtWarnNone
LogicReferenceObjectData B725D272-AF41-494D-94C6-547E030299E6
    $::ReferenceObjectData
        $::GameObjectData
            $::GameDataContainer
                $::DataContainer
            IsEventConnectionTarget 3
            IsPropertyConnectionTarget 2
            IndexInBlueprint 4
        BlueprintTransform::LinearTransform
            right::Vec3
                x 1.0
                y 0.0
                z 0.0
            up::Vec3
                x 0.0
                y 1.0
                z 0.0
            forward::Vec3
                x 0.0
                y 0.0
                z 1.0
            trans::Vec3
                x 0.0
                y 0.0
                z 0.0
        Blueprint Vehicles/common/DefaultMissileHUD/6446D860-E687-4FD1-C0F6-28F0A850FA18
        ObjectVariation *nullGuid*
        StreamRealm StreamRealm_None
        CastSunShadowEnable True
        Excluded False
    SubRealm SubRealm_All
LogicReferenceObjectData 65FAF36F-62D1-40DC-8A1D-73E94D51B754
    $::ReferenceObjectData
        $::GameObjectData
            $::GameDataContainer
                $::DataContainer
            IsEventConnectionTarget 0
            IsPropertyConnectionTarget 2
            IndexInBlueprint 5
        BlueprintTransform::LinearTransform
            right::Vec3
                x 1.0
                y 0.0
                z 0.0
            up::Vec3
                x 0.0
                y 1.0
                z 0.0
            forward::Vec3
                x 0.0
                y 0.0
                z 1.0
            trans::Vec3
                x 0.0
                y 0.0
                z 0.0
        Blueprint Vehicles/Common/LogicalPrefabs/Bot1pFX/8269E326-E67E-4048-8F48-17E0CC6958EA
        ObjectVariation *nullGuid*
        StreamRealm StreamRealm_None
        CastSunShadowEnable True
        Excluded False
    SubRealm SubRealm_All
LogicReferenceObjectData 2CC4871C-531C-45CD-AEB8-3ED6452ACCE7
    $::ReferenceObjectData
        $::GameObjectData
            $::GameDataContainer
                $::DataContainer
            IsEventConnectionTarget 0
            IsPropertyConnectionTarget 3
            IndexInBlueprint 21
        BlueprintTransform::LinearTransform
            right::Vec3
                x 1.0
                y 0.0
                z 0.0
            up::Vec3
                x 0.0
                y 1.0
                z 0.0
            forward::Vec3
                x 0.0
                y 0.0
                z 1.0
            trans::Vec3
                x 0.0
                y 0.0
                z 0.0
        Blueprint Vehicles/common/LogicalPrefabs/TeamRadioVehicleVO/30F1F206-B56A-4060-9C8E-14A0D02CFDFA
        ObjectVariation *nullGuid*
        StreamRealm StreamRealm_None
        CastSunShadowEnable True
        Excluded False
    SubRealm SubRealm_All
MessageEntityData C2A02245-B57B-4ACF-AC4B-4F63478791B9
    $::EntityData
        $::GameObjectData
            $::GameDataContainer
                $::DataContainer